geometry optimzed in LAMMPS
_audit_creation_date              2020-11-30 
_audit_creation_method            'lammps2cif' 
_symmetry_space_group_name_H-M    'P1' 
_symmetry_Int_Tables_number       1 
_symmetry_cell_setting            triclinic 
loop_ 
_symmetry_equiv_pos_as_xyz 
  x,y,z 
_cell_length_a                    36.49145877 
_cell_length_b                    36.508481515906276 
_cell_length_c                    32.64889347341372 
_cell_angle_alpha                 90.26627317224245 
_cell_angle_beta                  89.803145437749 
_cell_angle_gamma                 90.41205419367263 
loop_ 
_atom_site_label 
_atom_site_type_symbol 
_atom_site_fract_x 
_atom_site_fract_y 
_atom_site_fract_z 
_atom_site_charge 
C1          C  0.50155694  0.39086579  0.40894263     0.43900
N2          N  0.01807858  0.42377065  0.46027711     0.02800
C3          C  0.40236721  0.04236512  0.07270371    -0.05100
H4          H  0.39842808  0.05892454  0.41579155     0.08300
C5          C  0.03544757  0.09560707  0.42310085    -0.05400
Co6        Co  0.45345732  0.45526130  0.00189240     0.74200
N7          N  0.42621529  0.02112403  0.45573730    -0.24600
Co8        Co  0.45522677  0.05258091  0.49881201     0.74100
C9          C  0.50445969  0.10980603  0.40195915     0.44000
N10         N  0.07653110  0.01858029  0.45676712     0.02400
N11         N  0.48640558  0.07831854  0.45338088     0.02500
N12         N  0.40209906  0.47390131  0.07399264    -0.45500
H13         H  0.44015951  0.40024816  0.42179918     0.08300
N14         N  0.42568439  0.48710046  0.45447570     0.02800
N15         N  0.48221365  0.08230813  0.04250741     0.02500
C16         C  0.99729744  0.11549399  0.09500557     0.44100
N17         N  0.07887194  0.47945758  0.46067574    -0.24100
C18         C  0.46880175  0.40518453  0.07760565    -0.05000
N19         N  0.03137969  0.40127162  0.43194894    -0.45200
N20         N  0.46700473  0.10446189  0.06966794    -0.45400
C21         C  0.99924864  0.39166373  0.09760114     0.43900
N22         N  0.42398558  0.48635179  0.04454848     0.02800
N23         N  0.07543186  0.48266348  0.05002593    -0.24100
N24         N  0.48133583  0.42827062  0.45745270    -0.24600
N25         N  0.07696979  0.02046177  0.04702419     0.02400
H26         H  0.10221726  0.44163749  0.08631664     0.08300
H27         H  0.05943947  0.10649939  0.08595575     0.08400
N28         N  0.42312084  0.02752619  0.04320344    -0.24600
N29         N  0.02161267  0.07676549  0.45468823    -0.24200
N30         N  0.01536428  0.42748355  0.04892258     0.02800
C31         C  0.39355640  0.50175839  0.40228812     0.44200
C32         C  0.10039934  0.46567565  0.43105552    -0.05500
N33         N  0.02029315  0.08026309  0.04546728    -0.24200
H34         H  0.06422777  0.10006692  0.41669860     0.08300
N35         N  0.40523183  0.47310549  0.42466822    -0.45500
H36         H  0.10476812  0.43688765  0.42501076     0.08300
C37         C  0.11229483  0.00446220  0.09613640     0.44000
C38         C  0.46873252  0.40597440  0.42795508    -0.05000
Co39       Co  0.04701154  0.45365939  0.00464751     0.73800
N40         N  0.09801872  0.03176224  0.42757975    -0.45200
C41         C  0.38785499  0.01127726  0.09522816     0.44300
N42         N  0.02834412  0.40568655  0.07755404    -0.45200
Co43       Co  0.04951501  0.04978651  0.50086377     0.73900
C44         C  0.03133841  0.10148203  0.07700800    -0.05500
C45         C  0.40427635  0.03108566  0.42471143    -0.05100
N46         N  0.48133101  0.42721897  0.04774953    -0.24600
N47         N  0.47428467  0.09779310  0.42209007    -0.45300
H48         H  0.39781471  0.07130193  0.07752693     0.08300
C49         C  0.09675687  0.47016331  0.08021844    -0.05500
Cl50       Cl  0.00075294  0.00388245  0.00221538    -0.48500
C51         C  0.11570358  0.49775637  0.41036669     0.44100
H52         H  0.44029998  0.39895458  0.08375863     0.08300
N53         N  0.09829750  0.03369401  0.07648902    -0.45200
N54         N  0.48237024  0.30882138  0.25303779    -0.35200
N55         N  0.47909857  0.25253647  0.31582507    -0.55700
N56         N  0.49516861  0.19667478  0.25385388    -0.35200
N57         N  0.49311618  0.25251605  0.19035406    -0.54400
C58         C  0.47245966  0.32914185  0.28592508     0.28400
C59         C  0.47436204  0.32832163  0.21912445     0.28400
C60         C  0.48537478  0.17489604  0.28553171     0.28400
C61         C  0.49709827  0.17534678  0.21995701     0.28400
C62         C  0.48023063  0.28233427  0.34056354     0.37000
C63         C  0.48122332  0.22293945  0.34038331     0.37000
C64         C  0.49387876  0.28249103  0.16620799     0.37000
C65         C  0.50529157  0.22423617  0.16730297     0.37000
C66         C  0.45874416  0.36241181  0.27287890    -0.20400
C67         C  0.45967328  0.36179718  0.23074944    -0.20400
C68         C  0.48147630  0.13910555  0.27158339    -0.20400
C69         C  0.48914669  0.13934985  0.23031666    -0.20400
C70         C  0.48255619  0.27158033  0.38113211    -0.21500
C71         C  0.48297937  0.23398544  0.38103625    -0.21500
C72         C  0.50598157  0.27300981  0.12727757    -0.21500
C73         C  0.51354953  0.23622971  0.12810060    -0.21500
C74         C  0.47660570  0.31899027  0.32737612    -0.16800
C75         C  0.48188891  0.31781233  0.17814224    -0.16800
C76         C  0.50644162  0.18726638  0.18006327    -0.16800
C77         C  0.48116883  0.18603265  0.32694394    -0.16800
H78         H  0.44890395  0.38477526  0.29171338     0.16100
H79         H  0.45096961  0.38379451  0.21099575     0.16100
H80         H  0.47399417  0.11517755  0.28926891     0.16100
H81         H  0.48855703  0.11570945  0.21019414     0.16100
H82         H  0.48328671  0.28894648  0.40807545     0.14300
H83         H  0.48467927  0.21678134  0.40786486     0.14300
H84         H  0.50888213  0.29057596  0.10085749     0.14300
H85         H  0.52321492  0.22002483  0.10245940     0.14300
H86         H  0.49560622  0.28389834  0.25397855     0.27600
H87         H  0.50178727  0.22420536  0.25545903     0.27600
N88         N  0.30997548  0.47323835  0.25046172    -0.35200
N89         N  0.25193246  0.47685957  0.18908831    -0.55700
N90         N  0.19675256  0.47817647  0.25468989    -0.35200
N91         N  0.25474131  0.47046229  0.31575988    -0.55700
C92         C  0.32977447  0.46693001  0.21600891     0.28400
C93         C  0.33135540  0.46498943  0.28290601     0.28400
C94         C  0.17467684  0.47427723  0.22165679     0.28400
C95         C  0.17618227  0.47156140  0.28853797     0.28400
C96         C  0.28128353  0.47956366  0.16377560     0.37000
C97         C  0.22172187  0.48197970  0.16592192     0.37000
C98         C  0.28519065  0.47256291  0.33918892     0.37000
C99         C  0.22577495  0.47392352  0.34142495     0.37000
C100        C  0.36437348  0.45476470  0.22680882    -0.20400
C101        C  0.36537816  0.45361839  0.26895844    -0.20400
C102        C  0.13939861  0.46592044  0.23484539    -0.20400
C103        C  0.14036257  0.46420370  0.27690739    -0.20400
C104        C  0.26957527  0.48607133  0.12411451    -0.21500
C105        C  0.23196256  0.48756147  0.12546551    -0.21500
C106        C  0.27546404  0.47686023  0.38002739    -0.21500
C107        C  0.23788978  0.47760541  0.38144799    -0.21500
C108        C  0.31826717  0.47358220  0.17523640    -0.16800
C109        C  0.32164021  0.46895137  0.32475290    -0.16800
C110        C  0.18846469  0.47255103  0.32972340    -0.16800
C111        C  0.18497296  0.47881451  0.17997978    -0.16800
H112        H  0.38675265  0.44770038  0.20648030     0.16100
H113        H  0.38858366  0.44541933  0.28724677     0.16100
H114        H  0.11532920  0.46147225  0.21614166     0.16100
H115        H  0.11725523  0.45807108  0.29665068     0.16100
H116        H  0.28626185  0.48864389  0.09680128     0.14300
H117        H  0.21421375  0.49158610  0.09941107     0.14300
H118        H  0.29351885  0.47888667  0.40618716     0.14300
H119        H  0.22138847  0.48050598  0.40887036     0.14300
H120        H  0.28410146  0.48454808  0.25191394     0.27600
H121        H  0.22398123  0.48608521  0.25424259     0.27600
C122        C  0.15537007  0.47605332  0.14881758    -0.15000
C123        C  0.14145947  0.50573611  0.13054961    -0.30200
H124        H  0.14416686  0.44904245  0.14228761     0.14000
H125        H  0.14815760  0.03385345  0.13986090     0.14600
C126        C  0.14156295  0.49917942  0.37546339    -0.15000
C127        C  0.16061354  0.46981353  0.36299593    -0.30200
H128        H  0.14719228  0.03364902  0.36516277     0.14000
H129        H  0.15783124  0.44391590  0.37895783     0.14600
C130        C  0.35948970  0.50352706  0.12525484    -0.15000
C131        C  0.34668199  0.47255249  0.14234235    -0.30200
H132        H  0.35359170  0.04021097  0.14032140     0.14000
H133        H  0.35755660  0.44616797  0.13302487     0.14600
C134        C  0.35138258  0.46852342  0.35574465    -0.15000
C135        C  0.36738841  0.49992801  0.36796046    -0.30200
H136        H  0.35792927  0.44279332  0.37049236     0.14000
H137        H  0.35672180  0.96149353  0.36738738     0.14600
C138        C  0.48827700  0.14618129  0.12435717    -0.15000
C139        C  0.51482590  0.15887872  0.14884446    -0.30200
H140        H  0.46066836  0.15678753  0.12783915     0.14000
H141        H  0.04590592  0.15876358  0.13601118     0.14600
C142        C  0.50522864  0.13500560  0.36704389    -0.15000
C143        C  0.47726730  0.15728151  0.35870289    -0.30200
H144        H  0.03017847  0.13625650  0.34918290     0.14000
H145        H  0.45302062  0.15727124  0.37812063     0.14600
C146        C  0.47662710  0.34579082  0.14588045    -0.15000
C147        C  0.50549345  0.36251192  0.12854735    -0.30200
H148        H  0.44889234  0.35364001  0.13803951     0.14000
H149        H  0.03050784  0.35580726  0.13825832     0.14600
C150        C  0.47374410  0.34818755  0.35892776    -0.15000
C151        C  0.50378286  0.36236765  0.37684486    -0.30200
H152        H  0.94791077  0.36016904  0.36416344     0.14000
H153        H  0.53068053  0.35243398  0.36799757     0.14600
C154        C  0.50372026  0.38870907  0.91037368     0.43900
N155        N  0.01726464  0.42530840  0.95969008     0.02800
C156        C  0.40558155  0.04045906  0.57481103    -0.05100
H157        H  0.39956965  0.06105418  0.91267431     0.08300
C158        C  0.03584666  0.09629629  0.92447728    -0.05400
Co159      Co  0.45198489  0.45795543  0.50081710     0.74200
N160        N  0.42513637  0.02284530  0.95398202    -0.24600
Co161      Co  0.45377081  0.05348267  0.99783960     0.74100
C162        C  0.50646862  0.11196461  0.90396226     0.44000
N163        N  0.07751727  0.01948509  0.95749023     0.02400
N164        N  0.48646993  0.07900662  0.95347907     0.02500
N165        N  0.40285631  0.47704615  0.57494874    -0.45500
H166        H  0.44233374  0.39748276  0.92331364     0.08300
N167        N  0.42729145  0.48318961  0.95504543     0.02800
N168        N  0.48420605  0.08241763  0.54265005     0.02500
C169        C  0.99778463  0.11826434  0.59213947     0.44100
N170        N  0.07835829  0.48131054  0.96067948    -0.24100
C171        C  0.46744787  0.40751657  0.57650208    -0.05000
N172        N  0.03048487  0.40272215  0.93144501    -0.45200
N173        N  0.46938954  0.10409178  0.57060456    -0.45400
C174        C  0.99883562  0.39269298  0.59915867     0.43900
N175        N  0.42366461  0.48914991  0.54434162     0.02800
N176        N  0.07550035  0.48255727  0.54959387    -0.24100
N177        N  0.48332065  0.42573496  0.95897391    -0.24600
N178        N  0.07712744  0.02056747  0.54616156     0.02400
H179        H  0.10098625  0.44171867  0.58710224     0.08300
H180        H  0.05985890  0.10833057  0.58350094     0.08400
N181        N  0.42611782  0.02602047  0.54488356    -0.24600
N182        N  0.02186617  0.07737515  0.95586617    -0.24200
N183        N  0.01566578  0.42731415  0.54969101     0.02800
C184        C  0.39352271  0.49496722  0.90330579     0.44200
C185        C  0.10055029  0.46874664  0.93088532    -0.05500
N186        N  0.02046422  0.08088199  0.54426860    -0.24200
H187        H  0.06465980  0.10049555  0.91808265     0.08300
N188        N  0.40709077  0.46768001  0.92612934    -0.45500
H189        H  0.10549189  0.44022944  0.92386465     0.08300
C190        C  0.11321378  0.00449994  0.59453876     0.44000
C191        C  0.47085975  0.40345635  0.92945700    -0.05000
Co192      Co  0.04748531  0.45277136  0.50499896     0.73800
N193        N  0.09956915  0.03304568  0.92900963    -0.45200
C194        C  0.39111734  0.00904162  0.59677495     0.44300
N195        N  0.02827083  0.40620337  0.57920874    -0.45200
Co196      Co  0.04972212  0.05000730  0.00176422     0.73900
C197        C  0.03169515  0.10301146  0.57500314    -0.05500
C198        C  0.40442344  0.03314157  0.92205569    -0.05100
N199        N  0.47993465  0.42931292  0.54635315    -0.24600
N200        N  0.47556352  0.09969470  0.92254697    -0.45300
H201        H  0.40069570  0.06931079  0.57985724     0.08300
C202        C  0.09612558  0.47022926  0.58033434    -0.05500
Cl203      Cl  0.00023888  0.00378730  0.50255256    -0.48500
C204        C  0.11684454  0.50174613  0.91279200     0.44100
H205        H  0.43895376  0.40152720  0.58298301     0.08300
N206        N  0.09945233  0.03378452  0.57472378    -0.45200
N207        N  0.48283430  0.31017476  0.75080678    -0.35200
N208        N  0.48222882  0.25435839  0.81460206    -0.55700
N209        N  0.49898620  0.19833341  0.75330165    -0.35200
N210        N  0.49466507  0.25365089  0.68881765    -0.54400
C211        C  0.47275326  0.33053465  0.78358235     0.28400
C212        C  0.47426357  0.32924571  0.71674711     0.28400
C213        C  0.49061114  0.17651984  0.78552454     0.28400
C214        C  0.50176258  0.17672939  0.71965539     0.28400
C215        C  0.48176715  0.28443283  0.83891461     0.37000
C216        C  0.48412505  0.22505198  0.83965770     0.37000
C217        C  0.49427809  0.28335474  0.66420128     0.37000
C218        C  0.50725365  0.22540161  0.66598359     0.37000
C219        C  0.45818141  0.36337500  0.77026468    -0.20400
C220        C  0.45886755  0.36244348  0.72812065    -0.20400
C221        C  0.48861242  0.14041869  0.77216077    -0.20400
C222        C  0.49592842  0.14052331  0.73077599    -0.20400
C223        C  0.48275202  0.27409816  0.87972910    -0.21500
C224        C  0.48405381  0.23655232  0.88019241    -0.21500
C225        C  0.50608814  0.27376502  0.62522807    -0.21500
C226        C  0.51452456  0.23717062  0.62642263    -0.21500
C227        C  0.47778049  0.32092052  0.82511421    -0.16800
C228        C  0.48181395  0.31859091  0.67582114    -0.16800
C229        C  0.50984008  0.18859665  0.67927118    -0.16800
C230        C  0.48546756  0.18797950  0.82679880    -0.16800
H231        H  0.44799470  0.38571056  0.78888747     0.16100
H232        H  0.44957079  0.38405246  0.70817051     0.16100
H233        H  0.48250713  0.11637013  0.79026787     0.16100
H234        H  0.49642752  0.11661277  0.71106984     0.16100
H235        H  0.48175348  0.29163657  0.90651205     0.14300
H236        H  0.48500165  0.21968498  0.90733968     0.14300
H237        H  0.50829681  0.29121777  0.59862092     0.14300
H238        H  0.52426311  0.22094590  0.60083252     0.14300
H239        H  0.49668092  0.28559389  0.75193450     0.27600
H240        H  0.50385851  0.22622070  0.75423527     0.27600
N241        N  0.30761049  0.49683621  0.74826011    -0.35200
N242        N  0.25030258  0.48107890  0.68811926    -0.55700
N243        N  0.19562160  0.48228110  0.75332576    -0.35200
N244        N  0.25301701  0.49371460  0.81400268    -0.55700
C245        C  0.32854924  0.48765721  0.71547293     0.28400
C246        C  0.32970998  0.49812390  0.78145543     0.28400
C247        C  0.17470141  0.47218212  0.72103054     0.28400
C248        C  0.17680247  0.47374236  0.78782433     0.28400
C249        C  0.27922227  0.48482730  0.66248740     0.37000
C250        C  0.21984455  0.48289951  0.66477264     0.37000
C251        C  0.28207000  0.50532378  0.83627327     0.37000
C252        C  0.22364857  0.49354050  0.83941646     0.37000
C253        C  0.36456334  0.48354041  0.72797183    -0.20400
C254        C  0.36537031  0.49050418  0.76942174    -0.20400
C255        C  0.14186558  0.45751637  0.73506673    -0.20400
C256        C  0.14324964  0.45832273  0.77715960    -0.20400
C257        C  0.26711048  0.48839925  0.62250982    -0.21500
C258        C  0.22951095  0.48735968  0.62397084    -0.21500
C259        C  0.27118374  0.51212462  0.87631828    -0.21500
C260        C  0.23432635  0.50437308  0.87839504    -0.21500
C261        C  0.31644977  0.48423799  0.67433552    -0.16800
C262        C  0.31880575  0.50682543  0.82209803    -0.16800
C263        C  0.18786967  0.48162569  0.82852311    -0.16800
C264        C  0.18361159  0.47773794  0.67933318    -0.16800
H265        H  0.38797636  0.47647966  0.70917244     0.16100
H266        H  0.38955478  0.48971880  0.78845689     0.16100
H267        H  0.11913003  0.44745143  0.71692169     0.16100
H268        H  0.12161310  0.44919142  0.79752158     0.16100
H269        H  0.28362616  0.49163873  0.59514382     0.14300
H270        H  0.21146155  0.48902908  0.59783016     0.14300
H271        H  0.28820082  0.52075696  0.90173178     0.14300
H272        H  0.21756964  0.50608869  0.90572104     0.14300
H273        H  0.28011085  0.50347502  0.74786299     0.27600
H274        H  0.22032529  0.49628832  0.75162968     0.27600
C275        C  0.15345372  0.47529521  0.64908166    -0.15000
C276        C  0.14063416  0.50530243  0.63042016    -0.30200
H277        H  0.14135371  0.44856532  0.64314495     0.14000
H278        H  0.15438076  0.03286823  0.63297689     0.14600
C279        C  0.14525129  0.50530789  0.88079184    -0.15000
C280        C  0.16007130  0.47647230  0.86151182    -0.30200
H281        H  0.14930784  0.03547108  0.86671046     0.14000
H282        H  0.15025635  0.44893274  0.86788189     0.14600
C283        C  0.36618304  0.50815817  0.63081745    -0.15000
C284        C  0.34426959  0.48007882  0.64120427    -0.30200
H285        H  0.36176476  0.03652540  0.64704818     0.14000
H286        H  0.34367424  0.45541632  0.62245259     0.14600
C287        C  0.34779945  0.51546892  0.85260975    -0.15000
C288        C  0.36670402  0.48855117  0.87035050    -0.30200
H289        H  0.35151769  0.54372061  0.86233688     0.14000
H290        H  0.35633062  0.96418185  0.86437499     0.14600
C291        C  0.49126780  0.14528928  0.62572495    -0.15000
C292        C  0.51836254  0.16026453  0.64788359    -0.30200
H293        H  0.46320717  0.15352473  0.63187762     0.14000
H294        H  0.04712462  0.15348597  0.64213632     0.14600
C295        C  0.50871526  0.13774255  0.86941507    -0.15000
C296        C  0.48084281  0.15946819  0.85894127    -0.30200
H297        H  0.03204929  0.13824746  0.85222518     0.14000
H298        H  0.45554349  0.15889125  0.87658271     0.14600
C299        C  0.47611912  0.34625203  0.64322623    -0.15000
C300        C  0.50435598  0.36600898  0.62873444    -0.30200
H301        H  0.44853344  0.35061240  0.63200254     0.14000
H302        H  0.02892277  0.35836267  0.64255961     0.14600
C303        C  0.47594298  0.35058543  0.85622417    -0.15000
C304        C  0.50564661  0.36056645  0.87795984    -0.30200
H305        H  0.94715717  0.36017848  0.86464868     0.14000
H306        H  0.53178557  0.34746348  0.87202749     0.14600
C307        C  0.50110043  0.88901759  0.41352552     0.43900
N308        N  0.01377074  0.92578724  0.45991104     0.02800
C309        C  0.40144085  0.53583900  0.07091688    -0.05100
H310        H  0.40405442  0.56328427  0.41282117     0.08300
C311        C  0.04170030  0.59475680  0.42466126    -0.05400
Co312      Co  0.44967751  0.95899181  0.00409147     0.74200
N313        N  0.42774809  0.52320531  0.45314994    -0.24600
Co314      Co  0.45549344  0.55295963  0.49817443     0.74100
C315        C  0.50673375  0.61265216  0.40389253     0.44000
N316        N  0.08066644  0.51556317  0.45939526     0.02400
N317        N  0.48766707  0.58003021  0.45419154     0.02500
N318        N  0.40078446  0.98047027  0.07733784    -0.45500
H319        H  0.43989117  0.89785545  0.42791174     0.08300
N320        N  0.42537239  0.98505094  0.45861695     0.02800
N321        N  0.48185791  0.57952447  0.04377063     0.02500
C322        C  0.99773318  0.61792012  0.09158771     0.44100
N323        N  0.07464695  0.98246131  0.45649000    -0.24100
C324        C  0.46501283  0.91100464  0.08160308    -0.05000
N325        N  0.02474703  0.90333072  0.43018794    -0.45200
N326        N  0.46575268  0.60095821  0.07112568    -0.45400
C327        C  0.00520482  0.89770887  0.10161831     0.43900
N328        N  0.42197679  0.99152596  0.04663009     0.02800
N329        N  0.07655272  0.98430775  0.04590853    -0.24100
N330        N  0.48154004  0.92705544  0.46173131    -0.24600
N331        N  0.07661238  0.51881076  0.05040866     0.02400
H332        H  0.10338975  0.94314203  0.08191652     0.08300
H333        H  0.05973759  0.60675595  0.08540206     0.08400
N334        N  0.42393606  0.52246003  0.04200770    -0.24600
N335        N  0.02624887  0.57504554  0.45455116    -0.24200
N336        N  0.01785902  0.92909334  0.04820554     0.02800
C337        C  0.38963373  0.99650357  0.40837269     0.44200
C338        C  0.09572378  0.96979590  0.42579872    -0.05500
N339        N  0.02095394  0.57918407  0.04573970    -0.24200
H340        H  0.07077755  0.59922006  0.42028807     0.08300
N341        N  0.40390866  0.96937837  0.43094952    -0.45500
H342        H  0.10074003  0.94125473  0.41896097     0.08300
C343        C  0.11207024  0.50307845  0.09953509     0.44000
C344        C  0.46852062  0.90403398  0.43315758    -0.05000
Co345      Co  0.04684854  0.95512748  0.00191835     0.73800
N346        N  0.10227769  0.52764062  0.42957078    -0.45200
C347        C  0.38718244  0.50369029  0.09208889     0.44300
N348        N  0.03287304  0.91026767  0.07822019    -0.45200
Co349      Co  0.05196889  0.54768946  0.50192245     0.73900
C350        C  0.03169543  0.60150480  0.07636883    -0.05500
C351        C  0.40827242  0.53497993  0.42110113    -0.05100
N352        N  0.47762322  0.93122777  0.05020541    -0.24600
N353        N  0.47619913  0.60033158  0.42319258    -0.45300
H354        H  0.39545249  0.56446620  0.07605929     0.08300
C355        C  0.09801149  0.97168399  0.07584724    -0.05500
Cl356      Cl  0.00175355  0.50282830  0.00201186    -0.48500
C357        C  0.11104243  0.00276008  0.40670617     0.44100
H358        H  0.43646521  0.90622574  0.08895339     0.08300
N359        N  0.09856632  0.53212803  0.07921598    -0.45200
N360        N  0.47953352  0.81107821  0.25489026    -0.35200
N361        N  0.48022383  0.75367190  0.31635244    -0.55700
N362        N  0.49363418  0.69886865  0.25226061    -0.35200
N363        N  0.48860755  0.75590582  0.19030371    -0.54400
C364        C  0.46969652  0.83036016  0.28859013     0.28400
C365        C  0.47016045  0.83103235  0.22178360     0.28400
C366        C  0.48555113  0.67658275  0.28415350     0.28400
C367        C  0.49389396  0.67809345  0.21777908     0.28400
C368        C  0.48150774  0.78305742  0.34168761     0.37000
C369        C  0.48405780  0.72375208  0.34011565     0.37000
C370        C  0.48916148  0.78658992  0.16717722     0.37000
C371        C  0.50048815  0.72815314  0.16612918     0.37000
C372        C  0.45446748  0.86336749  0.27683223    -0.20400
C373        C  0.45457954  0.86371976  0.23469319    -0.20400
C374        C  0.48108874  0.64102907  0.26979616    -0.20400
C375        C  0.48668053  0.64190692  0.22807592    -0.20400
C376        C  0.48578049  0.77168883  0.38184203    -0.21500
C377        C  0.48721975  0.73415375  0.38086155    -0.21500
C378        C  0.50071654  0.77808760  0.12777706    -0.21500
C379        C  0.50814091  0.74122976  0.12721145    -0.21500
C380        C  0.47568660  0.81971160  0.32958854    -0.16800
C381        C  0.47743879  0.82171428  0.18041974    -0.16800
C382        C  0.50178477  0.69073496  0.17759494    -0.16800
C383        C  0.48335501  0.68706101  0.32601321    -0.16800
H384        H  0.44435488  0.88502149  0.29650306     0.16100
H385        H  0.44477050  0.88583438  0.21577768     0.16100
H386        H  0.47476568  0.61682046  0.28755334     0.16100
H387        H  0.48541752  0.61843076  0.20779489     0.16100
H388        H  0.48682946  0.78853081  0.40917697     0.14300
H389        H  0.49015708  0.71653723  0.40720533     0.14300
H390        H  0.50330739  0.79636798  0.10192960     0.14300
H391        H  0.51732975  0.72570635  0.10083769     0.14300
H392        H  0.49379185  0.78667405  0.25466275     0.27600
H393        H  0.50030197  0.72641040  0.25405664     0.27600
N394        N  0.30662770  0.99867139  0.25156609    -0.35200
N395        N  0.25098606  0.98448180  0.18857275    -0.55700
N396        N  0.19443121  0.98427446  0.25108306    -0.35200
N397        N  0.25030077  0.99450033  0.31453478    -0.55700
C398        C  0.32835870  0.98941511  0.21953457     0.28400
C399        C  0.32768407  0.99897305  0.28561931     0.28400
C400        C  0.17433569  0.97486975  0.21786013     0.28400
C401        C  0.17454522  0.97550605  0.28470434     0.28400
C402        C  0.28082076  0.98839513  0.16436381     0.37000
C403        C  0.22143852  0.98577772  0.16374922     0.37000
C404        C  0.27842116  0.00630431  0.33818658     0.37000
C405        C  0.21995569  0.99451260  0.33841756     0.37000
C406        C  0.36385875  0.98429925  0.23333111    -0.20400
C407        C  0.36349889  0.99059775  0.27492719    -0.20400
C408        C  0.14090951  0.96049997  0.23044962    -0.20400
C409        C  0.14109857  0.96071603  0.27259889    -0.20400
C410        C  0.27020556  0.99160856  0.12379000    -0.21500
C411        C  0.23259303  0.99014751  0.12343126    -0.21500
C412        C  0.26595967  0.01344027  0.37754754    -0.21500
C413        C  0.22904509  0.00570654  0.37779290    -0.21500
C414        C  0.31754887  0.98720969  0.17795229    -0.16800
C415        C  0.31564114  0.00768926  0.32579594    -0.16800
C416        C  0.18461611  0.98261009  0.32587216    -0.16800
C417        C  0.18474711  0.98027453  0.17655378    -0.16800
H418        H  0.38769185  0.97711927  0.21525583     0.16100
H419        H  0.38701395  0.98898782  0.29490697     0.16100
H420        H  0.11863732  0.95091597  0.21128884     0.16100
H421        H  0.11881151  0.95156743  0.29206713     0.16100
H422        H  0.28770908  0.99451898  0.09715663     0.14300
H423        H  0.21549591  0.99137701  0.09645839     0.14300
H424        H  0.28194896  0.02234093  0.40367102     0.14300
H425        H  0.21112746  0.00778363  0.40415726     0.14300
H426        H  0.27940238  0.00616717  0.25003914     0.27600
H427        H  0.21941538  0.99780409  0.25072977     0.27600
C428        C  0.15593863  0.97701451  0.14471078    -0.15000
C429        C  0.13998241  0.00685279  0.12896750    -0.30200
H430        H  0.14814220  0.94975497  0.13443484     0.14000
H431        H  0.15226158  0.53269616  0.13825349     0.14600
C432        C  0.13917080  0.00620231  0.37454499    -0.15000
C433        C  0.15596667  0.97731378  0.35770950    -0.30200
H434        H  0.14617960  0.52538081  0.36059723     0.14000
H435        H  0.14798291  0.94959407  0.36591225     0.14600
C436        C  0.36174041  0.01325015  0.12954147    -0.15000
C437        C  0.34654365  0.98342117  0.14635669    -0.30200
H438        H  0.34890157  0.52972928  0.13564462     0.14000
H439        H  0.35362361  0.95619749  0.13551719     0.14600
C440        C  0.34374585  0.01653523  0.35734540    -0.15000
C441        C  0.36233490  0.98979724  0.37588539    -0.30200
H442        H  0.34778484  0.04495062  0.36628413     0.14000
H443        H  0.35968580  0.52547694  0.35348873     0.14600
C444        C  0.48510723  0.64220449  0.12781344    -0.15000
C445        C  0.51108964  0.66323455  0.14525647    -0.30200
H446        H  0.45683775  0.64521227  0.13778381     0.14000
H447        H  0.04590578  0.64607880  0.14667256     0.14600
C448        C  0.50817456  0.63781066  0.36870655    -0.15000
C449        C  0.47939964  0.65798240  0.35750287    -0.30200
H450        H  0.04080784  0.63725988  0.35239192     0.14000
H451        H  0.45385300  0.65622707  0.37459003     0.14600
C452        C  0.47230640  0.85078641  0.14926652    -0.15000
C453        C  0.50126896  0.86790669  0.13255140    -0.30200
H454        H  0.44461354  0.85877667  0.14142330     0.14000
H455        H  0.03729146  0.87471689  0.15229670     0.14600
C456        C  0.47301555  0.84830657  0.36185046    -0.15000
C457        C  0.50300752  0.86059787  0.38142481    -0.30200
H458        H  0.04692174  0.85844002  0.36559883     0.14000
H459        H  0.52968165  0.84951446  0.37352202     0.14600
C460        C  0.49559582  0.89256757  0.91024226     0.43900
N461        N  0.01512566  0.92642105  0.95838724     0.02800
C462        C  0.40504535  0.53903585  0.57348430    -0.05100
H463        H  0.40134119  0.55736213  0.91220444     0.08300
C464        C  0.04154585  0.59631245  0.92726208    -0.05400
Co465      Co  0.45299288  0.95769340  0.50501447     0.74200
N466        N  0.42797420  0.51928886  0.95275342    -0.24600
Co467      Co  0.45489826  0.55026772  0.99778194     0.74100
C468        C  0.50863318  0.61305571  0.90732307     0.44000
N469        N  0.08038027  0.51741245  0.96122166     0.02400
N470        N  0.48791445  0.57750374  0.95431766     0.02500
N471        N  0.40409133  0.97848762  0.57841470    -0.45500
H472        H  0.43523112  0.90423974  0.92397600     0.08300
N473        N  0.42330406  0.98685559  0.95715992     0.02800
N474        N  0.48353352  0.58115043  0.54376641     0.02500
C475        C  0.99729914  0.61744917  0.58995578     0.44100
N476        N  0.07599990  0.98334447  0.95686762    -0.24100
C477        C  0.47098564  0.91028668  0.58282158    -0.05000
N478        N  0.02639515  0.90481582  0.92796100    -0.45200
N479        N  0.46810025  0.60133857  0.57270092    -0.45400
C480        C  0.00475899  0.89521506  0.60052124     0.43900
N481        N  0.42519760  0.98995580  0.54783925     0.02800
N482        N  0.07617271  0.98440945  0.54558570    -0.24100
N483        N  0.47794474  0.92836293  0.96095851    -0.24600
N484        N  0.07718699  0.51868928  0.54909982     0.02400
H485        H  0.10324351  0.94321616  0.58125779     0.08300
H486        H  0.05959111  0.60752891  0.58364007     0.08400
N487        N  0.42513124  0.52527062  0.54273499    -0.24600
N488        N  0.02593573  0.57628553  0.95678027    -0.24200
N489        N  0.01727192  0.92932100  0.54926666     0.02800
C490        C  0.38951906  0.99879435  0.90540479     0.44200
C491        C  0.09793499  0.97106702  0.92675945    -0.05500
N492        N  0.02139514  0.57940560  0.54358445    -0.24200
H493        H  0.07063579  0.60093669  0.92321039     0.08300
N494        N  0.40235289  0.97151832  0.92879778    -0.45500
H495        H  0.10346599  0.94261485  0.91998167     0.08300
C496        C  0.11159828  0.50314265  0.59915891     0.44000
C497        C  0.46402045  0.90805496  0.93060079    -0.05000
Co498      Co  0.04593154  0.95492417  0.50242463     0.73800
N499        N  0.10311201  0.53067705  0.93324465    -0.45200
C500        C  0.39044377  0.50721218  0.59464723     0.44300
N501        N  0.03232132  0.90852786  0.57751779    -0.45200
Co502      Co  0.05140851  0.54833658  0.00387421     0.73900
C503        C  0.03169140  0.60205613  0.57423477    -0.05500
C504        C  0.40716872  0.52946082  0.92088324    -0.05100
N505        N  0.48226290  0.93067836  0.55086269    -0.24600
N506        N  0.47741843  0.59924827  0.92403124    -0.45300
H507        H  0.40091747  0.56777680  0.57999461     0.08300
C508        C  0.09795313  0.97177294  0.57516808    -0.05500
Cl509      Cl  0.00231854  0.50206105  0.50121968    -0.48500
C510        C  0.11336179  0.00426104  0.90832167     0.44100
H511        H  0.44277698  0.90466059  0.59104233     0.08300
N512        N  0.09895541  0.53216197  0.57802064    -0.45200
N513        N  0.49782619  0.81036745  0.75703988    -0.35200
N514        N  0.50079804  0.75093824  0.81686910    -0.55700
N515        N  0.49388580  0.69768059  0.75093206    -0.35200
N516        N  0.49811778  0.75694914  0.69111634    -0.54400
C517        C  0.50991268  0.82935655  0.79012343     0.28400
C518        C  0.49991865  0.83282252  0.72423447     0.28400
C519        C  0.49553790  0.67502351  0.78352556     0.28400
C520        C  0.50339394  0.67811867  0.71723243     0.28400
C521        C  0.50325841  0.77985006  0.84274971     0.37000
C522        C  0.49224365  0.72134220  0.83986564     0.37000
C523        C  0.49082524  0.78688601  0.66843936     0.37000
C524        C  0.49894779  0.72811127  0.66506896     0.37000
C525        C  0.51948739  0.86458262  0.77809850    -0.20400
C526        C  0.51264079  0.86693034  0.73672221    -0.20400
C527        C  0.50502932  0.64022373  0.77030548    -0.20400
C528        C  0.51048079  0.64227945  0.72863465    -0.20400
C529        C  0.49698739  0.76840636  0.88263613    -0.21500
C530        C  0.48961747  0.73146705  0.88075940    -0.21500
C531        C  0.48734546  0.77704223  0.62753943    -0.21500
C532        C  0.49305342  0.73991263  0.62533728    -0.21500
C533        C  0.51104159  0.81645283  0.83113243    -0.16800
C534        C  0.49038057  0.82331389  0.68347643    -0.16800
C535        C  0.50512720  0.69128721  0.67637655    -0.16800
C536        C  0.48921204  0.68492476  0.82493245    -0.16800
H537        H  0.53004358  0.88652825  0.79718401     0.16100
H538        H  0.51724201  0.89088398  0.71796584     0.16100
H539        H  0.50865984  0.61604364  0.78886571     0.16100
H540        H  0.51870458  0.61979923  0.70902534     0.16100
H541        H  0.49717975  0.78500948  0.91019055     0.14300
H542        H  0.48366525  0.71398899  0.90666509     0.14300
H543        H  0.48233085  0.79486996  0.60178997     0.14300
H544        H  0.49243372  0.72342639  0.59770266     0.14300
H545        H  0.48707859  0.78415633  0.75691073     0.27600
H546        H  0.48565225  0.72464545  0.75181956     0.27600
N547        N  0.30638640  0.99910764  0.74804905    -0.35200
N548        N  0.24967893  0.98224993  0.68713030    -0.55700
N549        N  0.19418241  0.98489800  0.75112307    -0.35200
N550        N  0.25118136  0.99712841  0.81262543    -0.55700
C551        C  0.32786309  0.99044140  0.71559270     0.28400
C552        C  0.32827673  0.00211004  0.78131166     0.28400
C553        C  0.17381670  0.97377224  0.71877082     0.28400
C554        C  0.17539474  0.97606131  0.78552629     0.28400
C555        C  0.27903221  0.98471814  0.66192586     0.37000
C556        C  0.21961381  0.98288103  0.66303303     0.37000
C557        C  0.27997223  0.00845147  0.83550964     0.37000
C558        C  0.22159055  0.99645418  0.83765128     0.37000
C559        C  0.36402975  0.98840593  0.72835482    -0.20400
C560        C  0.36432563  0.99607790  0.76964223    -0.20400
C561        C  0.14133719  0.95824277  0.73266617    -0.20400
C562        C  0.14241697  0.95947172  0.77476715    -0.20400
C563        C  0.26755763  0.98608691  0.62150755    -0.21500
C564        C  0.22995351  0.98512850  0.62222064    -0.21500
C565        C  0.26866525  0.01458523  0.87553230    -0.21500
C566        C  0.23180621  0.00676813  0.87695281    -0.21500
C567        C  0.31610805  0.98550866  0.67451505    -0.16800
C568        C  0.31681640  0.01059664  0.82180082    -0.16800
C569        C  0.18604745  0.98434869  0.82623397    -0.16800
C570        C  0.18310668  0.97874353  0.67709901    -0.16800
H571        H  0.38787655  0.98219307  0.70986004     0.16100
H572        H  0.38841559  0.99675696  0.78887076     0.16100
H573        H  0.11918449  0.94704631  0.71443374     0.16100
H574        H  0.12106667  0.94961612  0.79509358     0.16100
H575        H  0.28449345  0.98792581  0.59430076     0.14300
H576        H  0.21234525  0.98537458  0.59562482     0.14300
H577        H  0.28539758  0.02285014  0.90132698     0.14300
H578        H  0.21471055  0.00800357  0.90405786     0.14300
H579        H  0.27859383  0.00407023  0.74729625     0.27600
H580        H  0.21849144  0.99962863  0.74954281     0.27600
C581        C  0.15321500  0.97650319  0.64640407    -0.15000
C582        C  0.14189919  0.00641262  0.62627610    -0.30200
H583        H  0.14007596  0.95012640  0.64124742     0.14000
H584        H  0.15237368  0.53198053  0.63766885     0.14600
C585        C  0.14150468  0.00797993  0.87614379    -0.15000
C586        C  0.15811584  0.97912986  0.85890797    -0.30200
H587        H  0.15448229  0.53275835  0.87288365     0.14000
H588        H  0.15022951  0.95140269  0.86718260     0.14600
C589        C  0.36530739  0.01046220  0.63136123    -0.15000
C590        C  0.34447650  0.98171819  0.64209829    -0.30200
H591        H  0.36430153  0.53376517  0.64777318     0.14000
H592        H  0.34572575  0.95631964  0.62468436     0.14600
C593        C  0.34545973  0.01940959  0.85271624    -0.15000
C594        C  0.36286958  0.99244507  0.87221671    -0.30200
H595        H  0.35048507  0.04788096  0.86076832     0.14000
H596        H  0.36123421  0.46033868  0.86134966     0.14600
C597        C  0.48910840  0.64003543  0.63054381    -0.15000
C598        C  0.51388526  0.66485903  0.64301059    -0.30200
H599        H  0.46226427  0.63931717  0.64505856     0.14000
H600        H  0.04580460  0.65678781  0.63623557     0.14600
C601        C  0.51182720  0.64229110  0.87653512    -0.15000
C602        C  0.48349309  0.65496558  0.85504684    -0.30200
H603        H  0.04208659  0.64481689  0.86073613     0.14000
H604        H  0.45630644  0.64312371  0.85871952     0.14600
C605        C  0.48285461  0.85303668  0.65374204    -0.15000
C606        C  0.51037841  0.87087367  0.63515408    -0.30200
H607        H  0.45471096  0.85749103  0.64443622     0.14000
H608        H  0.03867828  0.85979698  0.63894827     0.14600
C609        C  0.51853682  0.84337838  0.86454880    -0.15000
C610        C  0.49355737  0.86879430  0.87378803    -0.30200
H611        H  0.04513128  0.84344358  0.87836213     0.14000
H612        H  0.46856301  0.86991054  0.85582034     0.14600
C613        C  0.00220684  0.38761510  0.41134414     0.43900
N614        N  0.51753088  0.42764230  0.45727101     0.02800
C615        C  0.90525169  0.04054596  0.07618643    -0.05100
H616        H  0.89918936  0.05831266  0.41503013     0.08300
C617        C  0.53635046  0.09664143  0.42366297    -0.05400
Co618      Co  0.95199717  0.45718173  0.00233560     0.74200
N619        N  0.92477126  0.02094045  0.45720009    -0.24600
Co620      Co  0.95449715  0.05254401  0.49937809     0.74100
C621        C  0.00363126  0.10913451  0.40159585     0.44000
N622        N  0.57865448  0.02054516  0.45876037     0.02400
N623        N  0.98547535  0.07768399  0.45312194     0.02500
N624        N  0.90196334  0.47895164  0.07488421    -0.45500
H625        H  0.94087234  0.39842249  0.42277649     0.08300
N626        N  0.92748005  0.48426124  0.45447717     0.02800
N627        N  0.98418370  0.08127989  0.04375080     0.02500
C628        C  0.49434345  0.11809152  0.09271037     0.44100
N629        N  0.57820811  0.48451727  0.45915241    -0.24100
C630        C  0.96634448  0.40671681  0.07847135    -0.05000
N631        N  0.53078585  0.40525452  0.42882495    -0.45200
N632        N  0.96946885  0.10180709  0.07278194    -0.45400
C633        C  0.50188157  0.39058045  0.09663071     0.43900
N634        N  0.92376432  0.48993437  0.04464365     0.02800
N635        N  0.57557764  0.48347696  0.05007080    -0.24100
N636        N  0.98194995  0.42516813  0.45977204    -0.24600
N637        N  0.57476693  0.02033070  0.04985319     0.02400
H638        H  0.60279428  0.44239461  0.08580626     0.08300
H639        H  0.55651744  0.10765125  0.08663146     0.08400
N640        N  0.92571374  0.02602458  0.04622475    -0.24600
N641        N  0.52255033  0.07774831  0.45524055    -0.24200
N642        N  0.51750265  0.42653421  0.04793216     0.02800
C643        C  0.89474870  0.49633796  0.40201854     0.44200
C644        C  0.60134920  0.47219430  0.43022336    -0.05500
N645        N  0.51820032  0.08057104  0.04595116    -0.24200
H646        H  0.56511106  0.10139646  0.41741776     0.08300
N647        N  0.90719496  0.46894886  0.42550325    -0.45500
H648        H  0.60707708  0.44372584  0.42376989     0.08300
C649        C  0.61069512  0.00425510  0.09849072     0.44000
C650        C  0.96941881  0.40330642  0.42982649    -0.05000
Co651      Co  0.54842830  0.45424461  0.00414986     0.73800
N652        N  0.60063511  0.03403717  0.43020607    -0.45200
C653        C  0.89087678  0.00920853  0.09834335     0.44300
N654        N  0.53084333  0.40489298  0.07653943    -0.45200
Co655      Co  0.55024616  0.05117386  0.50196299     0.73900
C656        C  0.52859196  0.10244561  0.07715137    -0.05500
C657        C  0.90383839  0.03060672  0.42524672    -0.05100
N658        N  0.97919478  0.42868259  0.04861610    -0.24600
N659        N  0.97341036  0.09738606  0.42192886    -0.45300
H660        H  0.90030276  0.06940572  0.08110249     0.08300
C661        C  0.59671862  0.47088983  0.08029649    -0.05500
Cl662      Cl  0.49928569  0.00436384  0.00245536    -0.48500
C663        C  0.61753542  0.50530296  0.41242824     0.44100
H664        H  0.93777175  0.40072509  0.08451559     0.08300
N665        N  0.59702513  0.03347504  0.07851074    -0.45200
N666        N  0.98144353  0.30825159  0.25282996    -0.35200
N667        N  0.97913633  0.25192720  0.31521685    -0.55700
N668        N  0.99580310  0.19648503  0.25297593    -0.35200
N669        N  0.99363907  0.25253796  0.19002692    -0.54400
C670        C  0.97038245  0.32780520  0.28583779     0.28400
C671        C  0.97161477  0.32704708  0.21901889     0.28400
C672        C  0.98573041  0.17451070  0.28439452     0.28400
C673        C  0.99835085  0.17537966  0.21893649     0.28400
C674        C  0.98137423  0.28164252  0.34000830     0.37000
C675        C  0.98231329  0.22225050  0.33948941     0.37000
C676        C  0.99434783  0.28280782  0.16631579     0.37000
C677        C  0.00777657  0.22493649  0.16734537     0.37000
C678        C  0.95387103  0.35981781  0.27298955    -0.20400
C679        C  0.95436848  0.35920832  0.23082246    -0.20400
C680        C  0.98215813  0.13879671  0.27017195    -0.20400
C681        C  0.99054973  0.13925681  0.22905291    -0.20400
C682        C  0.98547558  0.27073871  0.38034134    -0.21500
C683        C  0.98585649  0.23313603  0.38003127    -0.21500
C684        C  0.00839158  0.27419757  0.12796335    -0.21500
C685        C  0.01720952  0.23767784  0.12874975    -0.21500
C686        C  0.97654704  0.31823349  0.32711555    -0.16800
C687        C  0.98024128  0.31739619  0.17805923    -0.16800
C688        C  0.00878358  0.18775010  0.17942353    -0.16800
C689        C  0.98149299  0.18541037  0.32589535    -0.16800
H690        H  0.94261544  0.38139968  0.29194949     0.16100
H691        H  0.94386053  0.38045501  0.21115971     0.16100
H692        H  0.97478980  0.11471954  0.28766238     0.16100
H693        H  0.99082505  0.11553856  0.20908399     0.16100
H694        H  0.98723036  0.28795190  0.40733716     0.14300
H695        H  0.98871442  0.21580518  0.40662297     0.14300
H696        H  0.01165148  0.29210650  0.10188910     0.14300
H697        H  0.02827404  0.22207940  0.10335222     0.14300
H698        H  0.99692003  0.28458968  0.25367173     0.27600
H699        H  0.00240419  0.22403701  0.25491339     0.27600
N700        N  0.80812891  0.50033488  0.24711479    -0.35200
N701        N  0.74972468  0.48419585  0.18846932    -0.55700
N702        N  0.69620967  0.48503269  0.25487502    -0.35200
N703        N  0.75500298  0.49583681  0.31421421    -0.55700
C704        C  0.82851249  0.49168420  0.21376365     0.28400
C705        C  0.83092298  0.50174029  0.27968424     0.28400
C706        C  0.67476746  0.47454166  0.22314864     0.28400
C707        C  0.67824115  0.47628334  0.28985678     0.28400
C708        C  0.77814294  0.48733740  0.16204465     0.37000
C709        C  0.71885878  0.48467345  0.16570572     0.37000
C710        C  0.78431126  0.50804249  0.33565733     0.37000
C711        C  0.72604591  0.49615425  0.34019477     0.37000
C712        C  0.86489545  0.48821651  0.22524205    -0.20400
C713        C  0.86646019  0.49485192  0.26669520    -0.20400
C714        C  0.64242047  0.45949586  0.23807026    -0.20400
C715        C  0.64469222  0.46037070  0.28012631    -0.20400
C716        C  0.76530977  0.48912122  0.12219606    -0.21500
C717        C  0.72777491  0.48765682  0.12452113    -0.21500
C718        C  0.77401098  0.51564478  0.37571594    -0.21500
C719        C  0.73720983  0.50786109  0.37866500    -0.21500
C720        C  0.81557842  0.48778101  0.17304451    -0.16800
C721        C  0.82074924  0.50976787  0.32065801    -0.16800
C722        C  0.69008912  0.48432631  0.33021509    -0.16800
C723        C  0.68291581  0.47959896  0.18116507    -0.16800
H724        H  0.88803002  0.48161826  0.20580459     0.16100
H725        H  0.89101771  0.49425824  0.28515001     0.16100
H726        H  0.61953289  0.44894236  0.22051136     0.16100
H727        H  0.62371883  0.45082890  0.30111448     0.16100
H728        H  0.78130519  0.49138990  0.09432916     0.14300
H729        H  0.70926684  0.48798591  0.09870203     0.14300
H730        H  0.79133436  0.52514587  0.40048528     0.14300
H731        H  0.72069313  0.51040041  0.40610271     0.14300
H732        H  0.78044403  0.50637494  0.24753853     0.27600
H733        H  0.72075898  0.49934850  0.25257795     0.27600
C734        C  0.65241998  0.47641302  0.15137018    -0.15000
C735        C  0.63879768  0.50620516  0.13301831    -0.30200
H736        H  0.64158652  0.44931472  0.14453371     0.14000
H737        H  0.65193144  0.03322550  0.13628414     0.14600
C738        C  0.64613695  0.50875605  0.38058803    -0.15000
C739        C  0.66289135  0.47970081  0.36383504    -0.30200
H740        H  0.65042302  0.03615334  0.36801819     0.14000
H741        H  0.65516726  0.45209373  0.37275796     0.14600
C742        C  0.86392206  0.51194182  0.12798480    -0.15000
C743        C  0.84291527  0.48358763  0.13955224    -0.30200
H744        H  0.86198725  0.03673655  0.14897687     0.14000
H745        H  0.84360124  0.45797831  0.12249395     0.14600
C746        C  0.85028879  0.51782635  0.35060135    -0.15000
C747        C  0.86794399  0.49042297  0.36899325    -0.30200
H748        H  0.85545255  0.54611296  0.35933115     0.14000
H749        H  0.85382538  0.96106575  0.37055206     0.14600
C750        C  0.99128826  0.14041494  0.12983936    -0.15000
C751        C  0.01799160  0.16011313  0.14751450    -0.30200
H752        H  0.96319804  0.14402191  0.14023191     0.14000
H753        H  0.54244836  0.14817103  0.14687270     0.14600
C754        C  0.00470727  0.13411276  0.36639114    -0.15000
C755        C  0.97704538  0.15662743  0.35761483    -0.30200
H756        H  0.53057954  0.13745721  0.34966576     0.14000
H757        H  0.95271551  0.15697641  0.37688973     0.14600
C758        C  0.97436595  0.34555313  0.14599618    -0.15000
C759        C  0.00292094  0.36314442  0.12908085    -0.30200
H760        H  0.94651241  0.35307603  0.13825549     0.14000
H761        H  0.53298886  0.35484694  0.13771633     0.14600
C762        C  0.97434353  0.34761411  0.35863056    -0.15000
C763        C  0.00423968  0.35927754  0.37900123    -0.30200
H764        H  0.44664817  0.35814629  0.36673564     0.14000
H765        H  0.03075535  0.34736379  0.37204356     0.14600
C766        C  0.00126675  0.38857392  0.91139696     0.43900
N767        N  0.51949809  0.42543123  0.95875970     0.02800
C768        C  0.90471740  0.04202913  0.57586844    -0.05100
H769        H  0.89852468  0.06026135  0.91681296     0.08300
C770        C  0.53748606  0.09755188  0.92630964    -0.05400
Co771      Co  0.95265578  0.45635042  0.50199613     0.74200
N772        N  0.92509294  0.02188576  0.95706542    -0.24600
Co773      Co  0.95469747  0.05256645  0.99993231     0.74100
C774        C  0.00420842  0.11034160  0.90315245     0.44000
N775        N  0.57732151  0.01906333  0.96070027     0.02400
N776        N  0.98573288  0.07862621  0.95433223     0.02500
N777        N  0.90242309  0.47824036  0.57426622    -0.45500
H778        H  0.93988832  0.39859128  0.92368803     0.08300
N779        N  0.92659325  0.48556705  0.95518327     0.02800
N780        N  0.98435216  0.08222895  0.54240280     0.02500
C781        C  0.49714476  0.11837393  0.59264225     0.44100
N782        N  0.57924894  0.48356582  0.96100553    -0.24100
C783        C  0.96626168  0.40726365  0.57904006    -0.05000
N784        N  0.53292940  0.40307973  0.93035416    -0.45200
N785        N  0.96988127  0.10416549  0.57028405    -0.45400
C786        C  0.50054670  0.39339097  0.59600350     0.43900
N787        N  0.92416800  0.48922136  0.54393975     0.02800
N788        N  0.57533519  0.48486876  0.54813153    -0.24100
N789        N  0.98109617  0.42629546  0.95968591    -0.24600
N790        N  0.57726726  0.02243464  0.54800108     0.02400
H791        H  0.60172692  0.44370127  0.58461108     0.08300
H792        H  0.55931226  0.10924380  0.58413909     0.08400
N793        N  0.92541276  0.02694913  0.54641719    -0.24600
N794        N  0.52252684  0.07780184  0.95658150    -0.24200
N795        N  0.51612070  0.42879359  0.54671073     0.02800
C796        C  0.89351475  0.49798204  0.90297080     0.44200
C797        C  0.60244228  0.47204699  0.93161937    -0.05500
N798        N  0.52030470  0.08158970  0.54472357    -0.24200
H799        H  0.56647255  0.10221334  0.92145329     0.08300
N800        N  0.90607308  0.47048220  0.92624964    -0.45500
H801        H  0.60842521  0.44377697  0.92438297     0.08300
C802        C  0.61207663  0.00711532  0.59778017     0.44000
C803        C  0.96846113  0.40400957  0.93016187    -0.05000
Co804      Co  0.54721931  0.45591719  0.50259101     0.73800
N805        N  0.59990118  0.03250336  0.93271722    -0.45200
C806        C  0.89012533  0.01109227  0.59867923     0.44300
N807        N  0.52946782  0.40771057  0.57584160    -0.45200
Co808      Co  0.54871969  0.04997596  0.00364118     0.73900
C809        C  0.53121813  0.10366963  0.57554766    -0.05500
C810        C  0.90361270  0.03230753  0.92588047    -0.05100
N811        N  0.97952531  0.42848478  0.54881117    -0.24600
N812        N  0.97382700  0.09871334  0.92333159    -0.45300
H813        H  0.89970748  0.07097588  0.57999380     0.08300
C814        C  0.59628530  0.47223787  0.57855640    -0.05500
Cl815      Cl  0.50160048  0.00444910  0.50233285    -0.48500
C816        C  0.61832774  0.50570515  0.91459695     0.44100
H817        H  0.93759482  0.40162805  0.58491837     0.08300
N818        N  0.59861905  0.03608719  0.57719983    -0.45200
N819        N  0.97979662  0.30859147  0.75292240    -0.35200
N820        N  0.98106768  0.25249663  0.81550074    -0.55700
N821        N  0.99843079  0.19725559  0.75310043    -0.35200
N822        N  0.99249045  0.25300547  0.68980152    -0.54400
C823        C  0.97056564  0.32874077  0.78619442     0.28400
C824        C  0.97077575  0.32803489  0.71931174     0.28400
C825        C  0.98869646  0.17515402  0.78459382     0.28400
C826        C  0.00081692  0.17617328  0.71900096     0.28400
C827        C  0.98170616  0.28219158  0.84040157     0.37000
C828        C  0.98381025  0.22281079  0.83979157     0.37000
C829        C  0.99080785  0.28296421  0.66566357     0.37000
C830        C  0.00577371  0.22545500  0.66635477     0.37000
C831        C  0.95597620  0.36179913  0.77362350    -0.20400
C832        C  0.95583793  0.36124233  0.73146454    -0.20400
C833        C  0.98552315  0.13939860  0.77034556    -0.20400
C834        C  0.99353211  0.13998774  0.72912521    -0.20400
C835        C  0.98456485  0.27123464  0.88087911    -0.21500
C836        C  0.98561860  0.23364109  0.88050573    -0.21500
C837        C  0.00232543  0.27413027  0.62633465    -0.21500
C838        C  0.01211387  0.23786700  0.62687616    -0.21500
C839        C  0.97646695  0.31875979  0.82747867    -0.16800
C840        C  0.97791240  0.31787465  0.67811949    -0.16800
C841        C  0.00950060  0.18859126  0.67902554    -0.16800
C842        C  0.98361636  0.18600706  0.82605052    -0.16800
H843        H  0.94649262  0.38410932  0.79275625     0.16100
H844        H  0.94647479  0.38318221  0.71201486     0.16100
H845        H  0.97822803  0.11527498  0.78779084     0.16100
H846        H  0.99332858  0.11646631  0.70883062     0.16100
H847        H  0.98481963  0.28838991  0.90799383     0.14300
H848        H  0.98754069  0.21628411  0.90719189     0.14300
H849        H  0.00353645  0.29186998  0.59990019     0.14300
H850        H  0.02199471  0.22223802  0.60089436     0.14300
H851        H  0.99347363  0.28392719  0.75332328     0.27600
H852        H  0.00448249  0.22493771  0.75484313     0.27600
N853        N  0.80800733  0.50070285  0.74647306    -0.35200
N854        N  0.74941745  0.48492498  0.68779325    -0.55700
N855        N  0.69551409  0.48801396  0.75383178    -0.35200
N856        N  0.75443264  0.49877555  0.81317713    -0.55700
C857        C  0.82826616  0.49079842  0.71344578     0.28400
C858        C  0.83062141  0.50175036  0.77925539     0.28400
C859        C  0.67411975  0.47709649  0.72220722     0.28400
C860        C  0.67748659  0.47967400  0.78893633     0.28400
C861        C  0.77803228  0.48726747  0.66146001     0.37000
C862        C  0.71862362  0.48563305  0.66484362     0.37000
C863        C  0.78383087  0.51120214  0.83437489     0.37000
C864        C  0.72528577  0.50039396  0.83887085     0.37000
C865        C  0.86436486  0.48597189  0.72536024    -0.20400
C866        C  0.86590315  0.49313800  0.76675225    -0.20400
C867        C  0.64170955  0.46233421  0.73728416    -0.20400
C868        C  0.64392341  0.46370083  0.77933666    -0.20400
C869        C  0.76535596  0.48875500  0.62153327    -0.21500
C870        C  0.72778352  0.48791005  0.62367265    -0.21500
C871        C  0.77335546  0.52045886  0.87391979    -0.21500
C872        C  0.73642158  0.51330571  0.87688318    -0.21500
C873        C  0.81549903  0.48718571  0.67260263    -0.16800
C874        C  0.82048737  0.51125455  0.81988186    -0.16800
C875        C  0.68936270  0.48804047  0.82925668    -0.16800
C876        C  0.68248721  0.48133994  0.68014592    -0.16800
H877        H  0.88732731  0.47819323  0.70621915     0.16100
H878        H  0.89026721  0.49187090  0.78547333     0.16100
H879        H  0.61886472  0.45153340  0.71983754     0.16100
H880        H  0.62288096  0.45441968  0.80038027     0.16100
H881        H  0.78148816  0.49036286  0.59371018     0.14300
H882        H  0.70940109  0.48817598  0.59774037     0.14300
H883        H  0.79068013  0.53045339  0.89844851     0.14300
H884        H  0.71988407  0.51692672  0.90413306     0.14300
H885        H  0.78066325  0.50796889  0.74645224     0.27600
H886        H  0.72012585  0.50214159  0.75134656     0.27600
C887        C  0.65203250  0.47798231  0.65019231    -0.15000
C888        C  0.63903712  0.50757740  0.63086946    -0.30200
H889        H  0.64065905  0.45095940  0.64409006     0.14000
H890        H  0.65132096  0.03652771  0.63767052     0.14600
C891        C  0.64686990  0.51041201  0.88277496    -0.15000
C892        C  0.66255601  0.48216156  0.86319485    -0.30200
H893        H  0.65071920  0.03505675  0.87208374     0.14000
H894        H  0.65371112  0.45432119  0.86966246     0.14600
C895        C  0.86423539  0.51111121  0.62752719    -0.15000
C896        C  0.84303686  0.48283342  0.63917704    -0.30200
H897        H  0.86028157  0.03955099  0.64805794     0.14000
H898        H  0.84366355  0.45720480  0.62215789     0.14600
C899        C  0.85004805  0.51934818  0.84998549    -0.15000
C900        C  0.86681405  0.49205202  0.86966994    -0.30200
H901        H  0.85584717  0.54771049  0.85787806     0.14000
H902        H  0.85390573  0.96374480  0.86947862     0.14600
C903        C  0.99184474  0.14536857  0.62504885    -0.15000
C904        C  0.01867034  0.16071040  0.64728089    -0.30200
H905        H  0.96369400  0.15333447  0.63117026     0.14000
H906        H  0.54671327  0.15273541  0.64258731     0.14600
C907        C  0.00593464  0.13543239  0.86805439    -0.15000
C908        C  0.97817315  0.15715882  0.85754671    -0.30200
H909        H  0.53486258  0.14060596  0.85367987     0.14000
H910        H  0.95286484  0.15681450  0.87517484     0.14600
C911        C  0.97276024  0.34630136  0.64626880    -0.15000
C912        C  0.00168932  0.36483127  0.63145032    -0.30200
H913        H  0.94518876  0.35233144  0.63604082     0.14000
H914        H  0.53169493  0.36102799  0.64048378     0.14600
C915        C  0.97374761  0.34793097  0.85915426    -0.15000
C916        C  0.00349466  0.36000646  0.87940005    -0.30200
H917        H  0.45006250  0.36458988  0.86050540     0.14000
H918        H  0.03015000  0.34842437  0.87239696     0.14600
C919        C  0.99374134  0.88932326  0.41332391     0.43900
N920        N  0.51770503  0.92686795  0.46038887     0.02800
C921        C  0.90501251  0.54087967  0.07144228    -0.05100
H922        H  0.90442750  0.55857716  0.40986800     0.08300
C923        C  0.53818517  0.59866055  0.42586536    -0.05400
Co924      Co  0.95172041  0.95783690  0.00558375     0.74200
N925        N  0.92919177  0.52029579  0.45160240    -0.24600
Co926      Co  0.95714099  0.55130321  0.49573207     0.74100
C927        C  0.01112345  0.60995780  0.40243017     0.44000
N928        N  0.57963401  0.52067360  0.45966534     0.02400
N929        N  0.99022670  0.57683144  0.45136470     0.02500
N930        N  0.90377086  0.97859573  0.07999574    -0.45500
H931        H  0.93385412  0.89926216  0.43120539     0.08300
N932        N  0.92288637  0.98501076  0.46127142     0.02800
N933        N  0.98499359  0.58118254  0.04223404     0.02500
C934        C  0.49250190  0.61591464  0.09420217     0.44100
N935        N  0.57742777  0.98440835  0.45870286    -0.24100
C936        C  0.97102449  0.91060965  0.08332513    -0.05000
N937        N  0.53059968  0.90410226  0.43215063    -0.45200
N938        N  0.97014081  0.60417079  0.06885096    -0.45400
C939        C  0.49795853  0.89612394  0.10068442     0.43900
N940        N  0.92482809  0.98997487  0.04931572     0.02800
N941        N  0.57373010  0.98415957  0.04923518    -0.24100
N942        N  0.97772117  0.92664355  0.46339726    -0.24600
N943        N  0.57560911  0.51964049  0.05145678     0.02400
H944        H  0.60088639  0.94295020  0.08493093     0.08300
H945        H  0.55503991  0.60772320  0.08824657     0.08400
N946        N  0.92562851  0.52599759  0.04185203    -0.24600
N947        N  0.52376684  0.57901058  0.45656553    -0.24200
N948        N  0.51374084  0.92937313  0.04963316     0.02800
C949        C  0.88870147  0.99598237  0.40963804     0.44200
C950        C  0.59942948  0.97201974  0.42874075    -0.05500
N951        N  0.51790043  0.57909622  0.04742043    -0.24200
H952        H  0.56708100  0.60320696  0.42024011     0.08300
N953        N  0.90162754  0.96912721  0.43356370    -0.45500
H954        H  0.60502287  0.94354805  0.42215562     0.08300
C955        C  0.61052103  0.50371473  0.10091691     0.44000
C956        C  0.96282318  0.90446359  0.43531122    -0.05000
Co957      Co  0.54476850  0.95504375  0.00443253     0.73800
N958        N  0.60284165  0.53417673  0.43225072    -0.45200
C959        C  0.88941849  0.50981486  0.09306589     0.44300
N960        N  0.52693532  0.90864991  0.07916743    -0.45200
Co961      Co  0.55033679  0.55092918  0.50301446     0.73900
C962        C  0.52735748  0.60159613  0.07853415    -0.05500
C963        C  0.90912359  0.53063933  0.41925089    -0.05100
N964        N  0.98174491  0.93015293  0.05047671    -0.24600
N965        N  0.97982764  0.59811030  0.42065070    -0.45300
H966        H  0.90102903  0.56984850  0.07669127     0.08300
C967        C  0.59534620  0.97150032  0.07906313    -0.05500
Cl968      Cl  0.50167777  0.50229621  0.00229344    -0.48500
C969        C  0.61464945  0.00516113  0.40997479     0.44100
H970        H  0.94301553  0.90597223  0.09302326     0.08300
N971        N  0.59666218  0.53290617  0.08111878    -0.45200
N972        N  0.00734864  0.81054294  0.25292167    -0.35200
N973        N  0.00356605  0.75438256  0.31584631    -0.55700
N974        N  0.00639784  0.69761760  0.25273834    -0.35200
N975        N  0.00241105  0.75355154  0.18985805    -0.54400
C976        C  0.00497446  0.83155543  0.28702380     0.28400
C977        C  0.99641412  0.83106321  0.22081155     0.28400
C978        C  0.99593660  0.67693511  0.28508685     0.28400
C979        C  0.00386829  0.67645508  0.21880131     0.28400
C980        C  0.01259528  0.78321331  0.34000974     0.37000
C981        C  0.00335485  0.72440581  0.34001211     0.37000
C982        C  0.00279233  0.78357053  0.16577797     0.37000
C983        C  0.01106898  0.72474467  0.16557691     0.37000
C984        C  0.99329594  0.86629934  0.27641451    -0.20400
C985        C  0.98746109  0.86586284  0.23474239    -0.20400
C986        C  0.98706653  0.64191492  0.27142892    -0.20400
C987        C  0.99250936  0.64150205  0.22967412    -0.20400
C988        C  0.01777413  0.77150905  0.37991527    -0.21500
C989        C  0.01151592  0.73434147  0.37999601    -0.21500
C990        C  0.01093769  0.77369090  0.12573624    -0.21500
C991        C  0.01663983  0.73650636  0.12570559    -0.21500
C992        C  0.01341412  0.82026732  0.32734263    -0.16800
C993        C  0.99559372  0.81975428  0.17916277    -0.16800
C994        C  0.01191313  0.68773232  0.17836998    -0.16800
C995        C  0.99569279  0.68819724  0.32672735    -0.16800
H996        H  0.98880058  0.88941777  0.29663204     0.16100
H997        H  0.97796131  0.88872770  0.21677299     0.16100
H998        H  0.97793424  0.61888272  0.28965185     0.16100
H999        H  0.98797303  0.61827995  0.20954740     0.16100
H1000       H  0.02462388  0.78809983  0.40639918     0.14300
H1001       H  0.01329242  0.71659608  0.40637194     0.14300
H1002       H  0.01322165  0.79151892  0.09943719     0.14300
H1003       H  0.02357303  0.71998282  0.09922441     0.14300
H1004       H  0.01740134  0.78413518  0.25172682     0.27600
H1005       H  0.01633198  0.72419646  0.25361181     0.27600
N1006       N  0.80705472  0.99872353  0.24991993    -0.35200
N1007       N  0.74936727  0.98387688  0.18925491    -0.55700
N1008       N  0.69465961  0.98584001  0.25360271    -0.35200
N1009       N  0.75269249  0.99523443  0.31492284    -0.55700
C1010       C  0.82788750  0.98948171  0.21716958     0.28400
C1011       C  0.82917490  0.99941385  0.28314083     0.28400
C1012       C  0.67387025  0.97496833  0.22145215     0.28400
C1013       C  0.67629169  0.97662067  0.28813327     0.28400
C1014       C  0.77858146  0.98587783  0.16380242     0.37000
C1015       C  0.71915031  0.98403802  0.16532802     0.37000
C1016       C  0.78153192  0.00704342  0.33740325     0.37000
C1017       C  0.72302197  0.99645437  0.33973944     0.37000
C1018       C  0.86386551  0.98480710  0.22970988    -0.20400
C1019       C  0.86470859  0.99129591  0.27124132    -0.20400
C1020       C  0.64157214  0.95931975  0.23567171    -0.20400
C1021       C  0.64319052  0.96013435  0.27772950    -0.20400
C1022       C  0.76685118  0.98657069  0.12344255    -0.21500
C1023       C  0.72924817  0.98553997  0.12442100    -0.21500
C1024       C  0.77021118  0.01536587  0.37690935    -0.21500
C1025       C  0.73320689  0.00843295  0.37847381    -0.21500
C1026       C  0.81575950  0.98607758  0.17607530    -0.16800
C1027       C  0.81833594  0.00787995  0.32374063    -0.16800
C1028       C  0.68737587  0.98464248  0.32868735    -0.16800
C1029       C  0.68273629  0.97985951  0.17966919    -0.16800
H1030       H  0.88718595  0.97742421  0.21091975     0.16100
H1031       H  0.88872243  0.98977352  0.29050380     0.16100
H1032       H  0.61922956  0.94821039  0.21766868     0.16100
H1033       H  0.62213359  0.95003622  0.29828511     0.16100
H1034       H  0.78362835  0.98764343  0.09606566     0.14300
H1035       H  0.71147069  0.98507528  0.09795963     0.14300
H1036       H  0.78696741  0.02475870  0.40221174     0.14300
H1037       H  0.71593696  0.01158043  0.40524161     0.14300
H1038       H  0.77963503  0.00565567  0.24938420     0.27600
H1039       H  0.71900082  0.00054540  0.25200280     0.27600
C1040       C  0.65259917  0.97684108  0.14920868    -0.15000
C1041       C  0.64003238  0.00650517  0.12957927    -0.30200
H1042       H  0.64019790  0.95012232  0.14398197     0.14000
H1043       H  0.64948404  0.53314336  0.14105120     0.14600
C1044       C  0.64283279  0.00874685  0.37797040    -0.15000
C1045       C  0.65969545  0.97975911  0.36150971    -0.30200
H1046       H  0.65372876  0.53612713  0.37055080     0.14000
H1047       H  0.65205793  0.95211137  0.37035670     0.14600
C1048       C  0.86513711  0.01075137  0.13301052    -0.15000
C1049       C  0.84388055  0.98223024  0.14343164    -0.30200
H1050       H  0.86104146  0.53816357  0.14352035     0.14000
H1051       H  0.84475554  0.95695664  0.12576645     0.14600
C1052       C  0.84727070  0.01614245  0.35440437    -0.15000
C1053       C  0.86217886  0.98923754  0.37643095    -0.30200
H1054       H  0.85468726  0.04455689  0.36003552     0.14000
H1055       H  0.86121391  0.46230196  0.36070344     0.14600
C1056       C  0.99245985  0.64715044  0.12226506    -0.15000
C1057       C  0.01910146  0.65878363  0.14733636    -0.30200
H1058       H  0.96541905  0.65925787  0.12476441     0.14000
H1059       H  0.53912832  0.66218853  0.13410699     0.14600
C1060       C  0.01462155  0.63598641  0.36830820    -0.15000
C1061       C  0.98856925  0.66004129  0.35862267    -0.30200
H1062       H  0.53434969  0.64177075  0.35331840     0.14000
H1063       H  0.96324752  0.66117292  0.37615317     0.14600
C1064       C  0.98678101  0.84728927  0.14728765    -0.15000
C1065       C  0.01096605  0.87340953  0.13686522    -0.30200
H1066       H  0.96190621  0.84353341  0.12952893     0.14000
H1067       H  0.52870252  0.85988700  0.14155795     0.14600
C1068       C  0.01926273  0.84893599  0.35915700    -0.15000
C1069       C  0.99067294  0.86188299  0.38030745    -0.30200
H1070       H  0.44633978  0.86005472  0.36818882     0.14000
H1071       H  0.96335610  0.85179755  0.37298245     0.14600
C1072       C  0.99555932  0.89193349  0.90962331     0.43900
N1073       N  0.51407193  0.92648400  0.95992389     0.02800
C1074       C  0.90534968  0.54012878  0.57065522    -0.05100
H1075       H  0.90335370  0.56017464  0.91126127     0.08300
C1076       C  0.53922559  0.59861553  0.93013748    -0.05400
Co1077     Co  0.95100853  0.95786661  0.50728978     0.74200
N1078       N  0.92841489  0.52162388  0.95254643    -0.24600
Co1079     Co  0.95668257  0.55221595  0.99703397     0.74100
C1080       C  0.01107910  0.61118366  0.90456968     0.44000
N1081       N  0.58030113  0.51972303  0.96231576     0.02400
N1082       N  0.98994795  0.57778759  0.95308657     0.02500
N1083       N  0.90316742  0.98017836  0.58112810    -0.45500
H1084       H  0.93549001  0.90261793  0.92603486     0.08300
N1085       N  0.92351189  0.98585441  0.96004064     0.02800
N1086       N  0.98534679  0.58067143  0.54039931     0.02500
C1087       C  0.49547140  0.61550736  0.59533541     0.44100
N1088       N  0.57553111  0.98291684  0.96013153    -0.24100
C1089       C  0.97054372  0.90963048  0.58377904    -0.05000
N1090       N  0.52601194  0.90484047  0.92988186    -0.45200
N1091       N  0.97003381  0.60294742  0.56740257    -0.45400
C1092       C  0.50489523  0.89706872  0.60154183     0.43900
N1093       N  0.92446187  0.99096196  0.55038016     0.02800
N1094       N  0.57659217  0.98628627  0.54781570    -0.24100
N1095       N  0.97901854  0.92772002  0.96098600    -0.24600
N1096       N  0.57623458  0.52103856  0.54889380     0.02400
H1097       H  0.60293713  0.94561159  0.58486682     0.08300
H1098       H  0.55781686  0.60754806  0.58723834     0.08400
N1099       N  0.92600875  0.52527458  0.54100526    -0.24600
N1100       N  0.52390802  0.57716740  0.95856018    -0.24200
N1101       N  0.51841662  0.93013043  0.54959758     0.02800
C1102       C  0.88842363  0.99802709  0.90947994     0.44200
C1103       C  0.59784929  0.97052546  0.93039489    -0.05500
N1104       N  0.51963562  0.58073287  0.54607651    -0.24200
H1105       H  0.56818557  0.60451853  0.92701730     0.08300
N1106       N  0.90188020  0.97061581  0.93225357    -0.45500
H1107       H  0.60315383  0.94205059  0.92350070     0.08300
C1108       C  0.61081994  0.50505594  0.59864462     0.44000
C1109       C  0.96442760  0.90703659  0.93130044    -0.05000
Co1110     Co  0.54797968  0.95638434  0.50380864     0.73800
N1111       N  0.60332834  0.53396365  0.93519297    -0.45200
C1112       C  0.88977531  0.50905262  0.59245786     0.44300
N1113       N  0.53291348  0.91038895  0.57916512    -0.45200
Co1114     Co  0.54988395  0.54935399  0.00531824     0.73900
C1115       C  0.52992301  0.60212197  0.57777687    -0.05500
C1116       C  0.90811227  0.53217742  0.92038726    -0.05100
N1117       N  0.98119565  0.93060783  0.55208576    -0.24600
N1118       N  0.97970018  0.59898635  0.92227901    -0.45300
H1119       H  0.90128817  0.56909047  0.57586249     0.08300
C1120       C  0.59761117  0.97407294  0.57828978    -0.05500
Cl1121     Cl  0.50129517  0.50442238  0.50108632    -0.48500
C1122       C  0.61380791  0.00367512  0.91231367     0.44100
H1123       H  0.94249375  0.90388317  0.59255610     0.08300
N1124       N  0.59754189  0.53423893  0.57835613    -0.45200
N1125       N  0.99922974  0.80916354  0.75506511    -0.35200
N1126       N  0.00286195  0.75091911  0.81565328    -0.55700
N1127       N  0.99756358  0.69649175  0.75038182    -0.35200
N1128       N  0.99958136  0.75470015  0.68963242    -0.54400
C1129       C  0.01004063  0.82918565  0.78794136     0.28400
C1130       C  0.99984947  0.83131662  0.72203792     0.28400
C1131       C  0.99904264  0.67429292  0.78333216     0.28400
C1132       C  0.00693377  0.67652341  0.71694095     0.28400
C1133       C  0.00470264  0.78016586  0.84114403     0.37000
C1134       C  0.99429930  0.72149544  0.83887476     0.37000
C1135       C  0.99187993  0.78433822  0.66669724     0.37000
C1136       C  0.00074763  0.72558558  0.66397718     0.37000
C1137       C  0.01726063  0.86484622  0.77556729    -0.20400
C1138       C  0.01033029  0.86631469  0.73416157    -0.20400
C1139       C  0.00823068  0.63923433  0.77055698    -0.20400
C1140       C  0.01372192  0.64076478  0.72882733    -0.20400
C1141       C  0.99813178  0.76911477  0.88107882    -0.21500
C1142       C  0.99111203  0.73208034  0.87959278    -0.21500
C1143       C  0.98841671  0.77403531  0.62592415    -0.21500
C1144       C  0.99458641  0.73693172  0.62412990    -0.21500
C1145       C  0.01192141  0.81676638  0.82906396    -0.16800
C1146       C  0.99083553  0.82090200  0.68140035    -0.16800
C1147       C  0.00812110  0.68908598  0.67584194    -0.16800
C1148       C  0.99209708  0.68483358  0.82449424    -0.16800
H1149       H  0.02612497  0.88765481  0.79446009     0.16100
H1150       H  0.01323603  0.89036878  0.71515886     0.16100
H1151       H  0.01127049  0.61509261  0.78929533     0.16100
H1152       H  0.02134285  0.61793176  0.70940565     0.16100
H1153       H  0.99781278  0.78604910  0.90837636     0.14300
H1154       H  0.98510235  0.71482249  0.90566763     0.14300
H1155       H  0.98313404  0.79155877  0.59998345     0.14300
H1156       H  0.99429578  0.72024827  0.59664700     0.14300
H1157       H  0.99026783  0.78229050  0.75510409     0.27600
H1158       H  0.98929433  0.72343483  0.75092723     0.27600
N1159       N  0.80613695  0.00127954  0.75127978    -0.35200
N1160       N  0.74908127  0.98621585  0.69033443    -0.55700
N1161       N  0.69360102  0.98708662  0.75438535    -0.35200
N1162       N  0.75101503  0.99715945  0.81588688    -0.55700
C1163       C  0.82735362  0.99219265  0.71875855     0.28400
C1164       C  0.82796865  0.00263598  0.78467174     0.28400
C1165       C  0.67277383  0.97772234  0.72175830     0.28400
C1166       C  0.67455217  0.97805658  0.78851455     0.28400
C1167       C  0.77843946  0.98856059  0.66509840     0.37000
C1168       C  0.71898582  0.98711586  0.66628269     0.37000
C1169       C  0.77978624  0.00832673  0.83891460     0.37000
C1170       C  0.72147766  0.99598854  0.84100097     0.37000
C1171       C  0.86332545  0.98827142  0.73161402    -0.20400
C1172       C  0.86376946  0.99519309  0.77308155    -0.20400
C1173       C  0.63961558  0.96333862  0.73524039    -0.20400
C1174       C  0.64081865  0.96331752  0.77733694    -0.20400
C1175       C  0.76693841  0.99021813  0.62472724    -0.21500
C1176       C  0.72933433  0.98955899  0.62548887    -0.21500
C1177       C  0.76853912  0.01385279  0.87904867    -0.21500
C1178       C  0.73177016  0.00570413  0.88046014    -0.21500
C1179       C  0.81554848  0.98847073  0.67758681    -0.16800
C1180       C  0.81660509  0.01076005  0.82522538    -0.16800
C1181       C  0.68576002  0.98448383  0.82941972    -0.16800
C1182       C  0.68242463  0.98282487  0.68020881    -0.16800
H1183       H  0.88690539  0.98123468  0.71305981     0.16100
H1184       H  0.88771408  0.99431411  0.79250698     0.16100
H1185       H  0.61695698  0.95363964  0.71672968     0.16100
H1186       H  0.61908263  0.95384592  0.79738227     0.16100
H1187       H  0.78386713  0.99185569  0.59750213     0.14300
H1188       H  0.71171244  0.98999617  0.59890948     0.14300
H1189       H  0.78526366  0.02193523  0.90491740     0.14300
H1190       H  0.71474711  0.00654475  0.90763532     0.14300
H1191       H  0.77857885  0.00767813  0.75057832     0.27600
H1192       H  0.71862744  0.00057255  0.75325408     0.27600
C1193       C  0.65285930  0.97990314  0.64926120    -0.15000
C1194       C  0.64018721  0.00968135  0.63004221    -0.30200
H1195       H  0.64136204  0.95297696  0.64293312     0.14000
H1196       H  0.65020886  0.53447226  0.63823127     0.14600
C1197       C  0.64216348  0.00750269  0.88047073    -0.15000
C1198       C  0.65790523  0.97879235  0.86204936    -0.30200
H1199       H  0.65505911  0.53817938  0.87488065     0.14000
H1200       H  0.64906814  0.95104342  0.86899051     0.14600
C1201       C  0.86419682  0.01313935  0.63324816    -0.15000
C1202       C  0.84385281  0.98436750  0.64510951    -0.30200
H1203       H  0.86139758  0.53734183  0.64304611     0.14000
H1204       H  0.84560256  0.95846019  0.62873863     0.14600
C1205       C  0.84529316  0.01909903  0.85618527    -0.15000
C1206       C  0.86145304  0.99190873  0.87660628    -0.30200
H1207       H  0.85168958  0.04753373  0.86312703     0.14000
H1208       H  0.85952783  0.46391064  0.86208947     0.14600
C1209       C  0.99053700  0.64429720  0.62300559    -0.15000
C1210       C  0.01720212  0.66205466  0.64316086    -0.30200
H1211       H  0.96216791  0.65024151  0.63062081     0.14000
H1212       H  0.53968520  0.66794947  0.62665677     0.14600
C1213       C  0.01460605  0.63811844  0.87141401    -0.15000
C1214       C  0.98602586  0.65560762  0.85529433    -0.30200
H1215       H  0.53890204  0.65401313  0.87128610     0.14000
H1216       H  0.95841995  0.65050597  0.86653143     0.14600
C1217       C  0.98311290  0.85028104  0.65154515    -0.15000
C1218       C  0.01059377  0.86733599  0.63211452    -0.30200
H1219       H  0.95478384  0.85661566  0.64467754     0.14000
H1220       H  0.53842081  0.86469357  0.64368196     0.14600
C1221       C  0.01929358  0.84424880  0.86199178    -0.15000
C1222       C  0.99264335  0.86689555  0.87416909    -0.30200
H1223       H  0.54202496  0.83941366  0.88435411     0.14000
H1224       H  0.96618200  0.86515906  0.85905966     0.14600
loop_ 
_geom_bond_atom_site_label_1 
_geom_bond_atom_site_label_2 
_geom_bond_distance 
_geom_bond_site_symmetry_2 
_ccdc_geom_bond_type 
C1           C38   1.458       .  S
C1          C151   1.476       .  S
C1          N631   1.352       .  A
N2           N19   1.327       .  A
N2          N636   1.320   1_455  A
N2         Co192   2.094       .  S
C3           C41   1.451       .  S
C3           N28   1.338       .  A
C3           H48   1.081       .  S
H4           C45   1.081       .  S
C5          C621   1.450       .  S
C5           N29   1.338       .  A
C5           H34   1.081       .  S
Co6          N46   2.089       .  S
Co6          N22   2.092       .  S
Co6         N177   2.075   1_554  S
Co6         N167   2.081   1_554  S
Co6        Cl968   2.450       .  S
N7           C45   1.346       .  A
N7          N320   1.321   1_545  A
N7           Co8   2.096       .  S
Co8          N11   2.089       .  S
Co8         N181   2.078       .  S
Co8         N168   2.082       .  S
Co8        Cl815   2.452       .  S
C9          C617   1.451       .  S
C9          C142   1.468       .  S
C9           N47   1.352       .  A
N10          N40   1.322       .  A
N10         N323   1.320   1_545  A
N10         Co43   2.082       .  S
N11          N47   1.326       .  A
N11         N641   1.321       .  A
N12         C347   1.352       .  A
N12          N22   1.327       .  A
H13          C38   1.081       .  S
N14          N35   1.327       .  A
N14         N313   1.321       .  A
N14        Co159   2.093       .  S
N15          N20   1.321       .  A
N15         N645   1.320       .  A
N15        Co161   2.072   1_554  S
C16          C44   1.467   1_655  S
C16         C750   1.470       .  S
C16         N632   1.342       .  A
N17          C32   1.342       .  A
N17         N316   1.320       .  A
N17        Co192   2.083       .  S
C18         C633   1.464       .  S
C18          N46   1.344       .  A
C18          H52   1.081       .  S
N19         C613   1.352       .  A
N20         C628   1.343       .  A
C21         C630   1.467       .  S
C21         C759   1.474   1_655  S
C21          N42   1.345   1_655  A
N22         N334   1.321       .  A
N23          C49   1.342       .  A
N23         N331   1.320       .  A
N23         Co39   2.091       .  S
N24          C38   1.339       .  A
N24         N614   1.321       .  A
N24        Co159   2.078       .  S
N25          N53   1.327       .  A
N25         N329   1.320   1_545  A
N25        Co196   2.092       .  S
H26          C49   1.081       .  S
H27          C44   1.081       .  S
N28         N328   1.320   1_545  A
N28        Co161   2.081   1_554  S
N29         N623   1.321   1_455  A
N29         Co43   2.078       .  S
N30          N42   1.322       .  A
N30         N658   1.321   1_455  A
N30         Co39   2.079       .  S
C31         C351   1.457       .  S
C31         C135   1.476       .  S
C31          N35   1.351       .  A
C32          C51   1.461       .  S
C32          H36   1.081       .  S
N33          C44   1.347       .  A
N33         N627   1.320   1_455  A
N33        Co196   2.098       .  S
C37         C355   1.459   1_545  S
C37         C429   1.477       .  S
C37          N53   1.352       .  A
Co39        N155   2.094   1_554  S
Co39        N170   2.091   1_554  S
Co39       Cl356   2.450       .  S
N40         C357   1.345       .  A
C41         C436   1.470       .  S
C41         N318   1.352   1_545  A
Co43        N178   2.093       .  S
Co43        N186   2.101       .  S
Co43       Cl203   2.452       .  S
C45         C337   1.466   1_545  S
N46         N642   1.320       .  A
C49         C343   1.463       .  S
Cl50       Co924   2.449   1_445  S
Cl50       Co773   2.456   1_454  S
Cl50       Co345   2.458   1_545  S
Cl50       Co196   2.447       .  S
C51         C126   1.478       .  S
C51         N346   1.350       .  A
N54          C59   1.353       .  A
N54          C58   1.352       .  A
N54          H86   1.034       .  S
N55          C62   1.352       .  A
N55          C63   1.351       .  A
N56          C61   1.352       .  A
N56          C60   1.353       .  A
N56          H87   1.033       .  S
N57          C64   1.352       .  A
N57          C65   1.352       .  A
C58          C66   1.386       .  A
C58          C74   1.414       .  A
C59          C75   1.417       .  A
C59          C67   1.389       .  A
C60          C68   1.388       .  A
C60          C77   1.418       .  A
C61          C76   1.415       .  A
C61          C69   1.387       .  A
C62          C74   1.415       .  A
C62          C70   1.386       .  A
C63          C77   1.415       .  A
C63          C71   1.387       .  A
C64          C72   1.387       .  A
C64          C75   1.417       .  A
C65          C73   1.386       .  A
C65          C76   1.415       .  A
C66          H78   1.082       .  S
C66          C67   1.376       .  A
C67          H79   1.082       .  S
C68          H80   1.082       .  S
C68          C69   1.375       .  A
C69          H81   1.082       .  S
C70          H82   1.082       .  S
C70          C71   1.373       .  A
C71          H83   1.082       .  S
C72          H84   1.082       .  S
C72          C73   1.373       .  A
C73          H85   1.082       .  S
C74         C150   1.483       .  S
C75         C146   1.485       .  S
C76         C139   1.483       .  S
C77         C143   1.485       .  S
N88          C93   1.354       .  A
N88          C92   1.355       .  A
N88         H120   1.034       .  S
N89          C96   1.354       .  A
N89          C97   1.354       .  A
N90          C95   1.355       .  A
N90          C94   1.355       .  A
N90         H121   1.033       .  S
N91          C98   1.353       .  A
N91          C99   1.353       .  A
C92         C100   1.389       .  A
C92         C108   1.420       .  A
C93         C109   1.417       .  A
C93         C101   1.387       .  A
C94         C102   1.388       .  A
C94         C111   1.420       .  A
C95         C110   1.419       .  A
C95         C103   1.386       .  A
C96         C108   1.420       .  A
C96         C104   1.387       .  A
C97         C111   1.420       .  A
C97         C105   1.387       .  A
C98         C106   1.387       .  A
C98         C109   1.416       .  A
C99         C107   1.387       .  A
C99         C110   1.416       .  A
C100        H112   1.082       .  S
C100        C101   1.378       .  A
C101        H113   1.083       .  S
C102        H114   1.082       .  S
C102        C103   1.376       .  A
C103        H115   1.082       .  S
C104        H116   1.082       .  S
C104        C105   1.375       .  A
C105        H117   1.082       .  S
C106        H118   1.082       .  S
C106        C107   1.372       .  A
C107        H119   1.082       .  S
C108        C131   1.491       .  S
C109        C134   1.487       .  S
C110        C127   1.488       .  S
C111        C122   1.489       .  S
C122        C123   1.343       .  D
C122        H124   1.085       .  S
C123        C343   1.480       .  S
C123        H431   1.086       .  S
H125        C429   1.086       .  S
C126        C127   1.343       .  D
C126        H434   1.086       .  S
C127        H129   1.086       .  S
H128        C432   1.087       .  S
C130        C347   1.479       .  S
C130        C131   1.343       .  D
C130        H438   1.087       .  S
C131        H133   1.086       .  S
H132        C436   1.087       .  S
C134        C135   1.343       .  D
C134        H136   1.086       .  S
C135        H443   1.087       .  S
H137        C441   1.087       .  S
C138        C628   1.470       .  S
C138        C139   1.337       .  D
C138        H140   1.087       .  S
C139        H753   1.085       .  S
H141        C751   1.086       .  S
C142        C143   1.339       .  D
C142        H756   1.087       .  S
C143        H145   1.087       .  S
H144        C754   1.087       .  S
C146        C147   1.339       .  D
C146        H148   1.086       .  S
C147        C633   1.472       .  S
C147        H761   1.087       .  S
H149        C759   1.087       .  S
C150        C151   1.344       .  D
C150        H764   1.085       .  S
C151        H153   1.087       .  S
H152        C762   1.085       .  S
C154        C191   1.455       .  S
C154        C304   1.473       .  S
C154        N784   1.353       .  A
N155        N172   1.326       .  A
N155        N789   1.321   1_455  A
C156        C194   1.451       .  S
C156        N181   1.338       .  A
C156        H201   1.081       .  S
H157        C198   1.081       .  S
C158        C774   1.448       .  S
C158        N182   1.336       .  A
C158        H187   1.081       .  S
Co159       N199   2.094       .  S
Co159       N175   2.092       .  S
Co159     Cl1121   2.464       .  S
N160        C198   1.346       .  A
N160        N473   1.320   1_545  A
N160       Co161   2.091       .  S
Co161       N164   2.092       .  S
Co161      Cl662   2.458   1_556  S
C162        C770   1.452       .  S
C162        C295   1.474       .  S
C162        N200   1.353       .  A
N163        N476   1.320   1_545  A
N163        N193   1.323       .  A
N163       Co196   2.086   1_556  S
N164        N794   1.321       .  A
N164        N200   1.328       .  A
N165        C500   1.353       .  A
N165        N175   1.328       .  A
H166        C191   1.081       .  S
N167        N466   1.320       .  A
N167        N188   1.323       .  A
N168        N798   1.320       .  A
N168        N173   1.322       .  A
C169        C197   1.469   1_655  S
C169        C903   1.474       .  S
C169        N785   1.343       .  A
N170        C185   1.345       .  A
N170        N469   1.320       .  A
C171        C786   1.465       .  S
C171        N199   1.345       .  A
C171        H205   1.081       .  S
N172        C766   1.351       .  A
N173        C781   1.345       .  A
C174        C783   1.465       .  S
C174        C912   1.473   1_655  S
C174        N195   1.346   1_655  A
N175        N487   1.321       .  A
N176        C202   1.338       .  A
N176        N484   1.320       .  A
N176       Co192   2.080       .  S
N177        C191   1.337       .  A
N177        N767   1.320       .  A
N178        N482   1.320   1_545  A
N178        N206   1.327       .  A
H179        C202   1.081       .  S
H180        C197   1.081       .  S
N181        N481   1.321   1_545  A
N182        N776   1.321   1_455  A
N182       Co196   2.078   1_556  S
N183        N195   1.323       .  A
N183        N811   1.320   1_455  A
N183       Co192   2.080       .  S
C184        C504   1.466       .  S
C184        C288   1.474       .  S
C184        N188   1.345       .  A
C185        C204   1.466       .  S
C185        H189   1.081       .  S
N186        C197   1.348       .  A
N186        N780   1.321   1_455  A
C190        C508   1.457   1_545  S
C190        C582   1.476       .  S
C190        N206   1.353       .  A
Co192      Cl509   2.453       .  S
N193        C510   1.346       .  A
C194        C589   1.469       .  S
C194        N471   1.352   1_545  A
C198        C490   1.466   1_545  S
N199        N795   1.321       .  A
C202        C496   1.458       .  S
Cl203     Co1077   2.453   1_445  S
Cl203      Co620   2.452   1_455  S
Cl203      Co498   2.451   1_545  S
C204        C279   1.475       .  S
C204        N499   1.346       .  A
N207        C212   1.353       .  A
N207        C211   1.352       .  A
N207        H239   1.034       .  S
N208        C215   1.352       .  A
N208        C216   1.352       .  A
N209        C214   1.353       .  A
N209        C213   1.355       .  A
N209        H240   1.033       .  S
N210        C217   1.353       .  A
N210        C218   1.352       .  A
C211        C219   1.387       .  A
C211        C227   1.415       .  A
C212        C228   1.417       .  A
C212        C220   1.388       .  A
C213        C221   1.388       .  A
C213        C230   1.421       .  A
C214        C229   1.419       .  A
C214        C222   1.387       .  A
C215        C227   1.417       .  A
C215        C223   1.387       .  A
C216        C230   1.416       .  A
C216        C224   1.387       .  A
C217        C225   1.386       .  A
C217        C228   1.417       .  A
C218        C226   1.387       .  A
C218        C229   1.418       .  A
C219        H231   1.082       .  S
C219        C220   1.376       .  A
C220        H232   1.083       .  S
C221        H233   1.082       .  S
C221        C222   1.376       .  A
C222        H234   1.082       .  S
C223        H235   1.082       .  S
C223        C224   1.372       .  A
C224        H236   1.082       .  S
C225        H237   1.082       .  S
C225        C226   1.374       .  A
C226        H238   1.082       .  S
C227        C303   1.483       .  S
C228        C299   1.487       .  S
C229        C292   1.486       .  S
C230        C296   1.490       .  S
N241        C246   1.354       .  A
N241        C245   1.355       .  A
N241        H273   1.034       .  S
N242        C249   1.351       .  A
N242        C250   1.352       .  A
N243        C248   1.354       .  A
N243        C247   1.352       .  A
N243        H274   1.035       .  S
N244        C251   1.352       .  A
N244        C252   1.353       .  A
C245        C253   1.387       .  A
C245        C261   1.420       .  A
C246        C262   1.419       .  A
C246        C254   1.388       .  A
C247        C255   1.386       .  A
C247        C264   1.414       .  A
C248        C263   1.418       .  A
C248        C256   1.389       .  A
C249        C261   1.414       .  A
C249        C257   1.386       .  A
C250        C264   1.415       .  A
C250        C258   1.387       .  A
C251        C259   1.387       .  A
C251        C262   1.417       .  A
C252        C260   1.387       .  A
C252        C263   1.419       .  A
C253        H265   1.082       .  S
C253        C254   1.376       .  A
C254        H266   1.082       .  S
C255        H267   1.082       .  S
C255        C256   1.376       .  A
C256        H268   1.082       .  S
C257        H269   1.082       .  S
C257        C258   1.373       .  A
C258        H270   1.082       .  S
C259        H271   1.082       .  S
C259        C260   1.374       .  A
C260        H272   1.082       .  S
C261        C284   1.489       .  S
C262        C287   1.487       .  S
C263        C280   1.489       .  S
C264        C275   1.483       .  S
C275        C276   1.344       .  D
C275        H277   1.085       .  S
C276        C496   1.475       .  S
C276        H584   1.087       .  S
H278        C582   1.087       .  S
C279        C280   1.340       .  D
C279        H587   1.087       .  S
C280        H282   1.086       .  S
H281        C585   1.087       .  S
C283        C500   1.474       .  S
C283        C284   1.340       .  D
C283        H591   1.087       .  S
C284        H286   1.087       .  S
H285        C589   1.087       .  S
C287        C288   1.340       .  D
C287        H289   1.086       .  S
C288        H596   1.087       .  S
H290        C594   1.087       .  S
C291        C781   1.473       .  S
C291        C292   1.339       .  D
C291        H293   1.087       .  S
C292        H906   1.085       .  S
H294        C904   1.085       .  S
C295        C296   1.341       .  D
C295        H909   1.087       .  S
C296        H298   1.087       .  S
H297        C907   1.087       .  S
C299        C300   1.340       .  D
C299        H301   1.086       .  S
C300        C786   1.474       .  S
C300        H914   1.087       .  S
H302        C912   1.087       .  S
C303        C304   1.345       .  D
C303        H917   1.085       .  S
C304        H306   1.087       .  S
H305        C915   1.085       .  S
C307        C344   1.458       .  S
C307        C457   1.473       .  S
C307        N937   1.351       .  A
N308        N325   1.330       .  A
N308        N942   1.321   1_455  A
N308       Co498   2.101       .  S
C309        C347   1.457       .  S
C309        N334   1.341       .  A
C309        H354   1.082       .  S
H310        C351   1.082       .  S
C311        C927   1.448       .  S
C311        N335   1.336       .  A
C311        H340   1.081       .  S
Co312       N483   2.071   1_554  S
Co312       N473   2.085   1_554  S
Co312       N352   2.091       .  S
Co312       N328   2.087       .  S
Co312      Cl662   2.446   1_565  S
N313        C351   1.341       .  A
N313       Co314   2.085       .  S
Co314       N317   2.098       .  S
Co314       N487   2.086       .  S
Co314       N474   2.074       .  S
Co314     Cl1121   2.447       .  S
C315        C923   1.453       .  S
C315        C448   1.475       .  S
C315        N353   1.353       .  A
N316        N346   1.326       .  A
N316       Co349   2.096       .  S
N317        N947   1.321       .  A
N317        N353   1.328       .  A
N318        N328   1.327       .  A
H319        C344   1.081       .  S
N320        N341   1.323       .  A
N320       Co465   2.085       .  S
N321        N951   1.321       .  A
N321        N326   1.324       .  A
N321       Co467   2.084   1_554  S
C322        C350   1.465   1_655  S
C322       C1056   1.473       .  S
C322        N938   1.346       .  A
N323        C338   1.343       .  A
N323       Co498   2.085       .  S
C324        C939   1.465       .  S
C324        N352   1.344       .  A
C324        H358   1.081       .  S
N325        C919   1.356   1_455  A
N326        C934   1.346       .  A
C327        C936   1.466   1_455  S
C327       C1065   1.473       .  S
C327        N348   1.343       .  A
N329        C355   1.340       .  A
N329       Co345   2.086       .  S
N330        C344   1.339       .  A
N330        N920   1.320       .  A
N330       Co465   2.080       .  S
N331        N359   1.326       .  A
N331       Co502   2.087       .  S
H332        C355   1.081       .  S
H333        C350   1.081       .  S
N334       Co467   2.092   1_554  S
N335        N929   1.321   1_455  A
N335       Co349   2.076       .  S
N336        N348   1.322       .  A
N336        N964   1.321   1_455  A
N336       Co345   2.072       .  S
C337        C441   1.476       .  S
C337        N341   1.346       .  A
C338        C357   1.464   1_565  S
C338        H342   1.081       .  S
N339        C350   1.345       .  A
N339        N933   1.320   1_455  A
N339       Co502   2.089       .  S
C343        N359   1.351       .  A
Co345       N461   2.107   1_554  S
Co345       N476   2.084   1_554  S
Co349       N484   2.093       .  S
Co349       N492   2.105       .  S
Co349      Cl509   2.452       .  S
N352        N948   1.320       .  A
Cl356      Co618   2.456   1_455  S
Cl356     Co1079   2.456   1_454  S
Cl356      Co502   2.450       .  S
C357        C432   1.471       .  S
N360        C365   1.353       .  A
N360        C364   1.352       .  A
N360        H392   1.035       .  S
N361        C368   1.352       .  A
N361        C369   1.351       .  A
N362        C367   1.355       .  A
N362        C366   1.355       .  A
N362        H393   1.034       .  S
N363        C370   1.354       .  A
N363        C371   1.354       .  A
C364        C372   1.387       .  A
C364        C380   1.414       .  A
C365        C381   1.416       .  A
C365        C373   1.389       .  A
C366        C374   1.387       .  A
C366        C383   1.420       .  A
C367        C382   1.421       .  A
C367        C375   1.388       .  A
C368        C380   1.415       .  A
C368        C376   1.387       .  A
C369        C383   1.415       .  A
C369        C377   1.387       .  A
C370        C378   1.387       .  A
C370        C381   1.420       .  A
C371        C379   1.386       .  A
C371        C382   1.419       .  A
C372        H384   1.082       .  S
C372        C373   1.376       .  A
C373        H385   1.082       .  S
C374        H386   1.082       .  S
C374        C375   1.377       .  A
C375        H387   1.081       .  S
C376        H388   1.082       .  S
C376        C377   1.372       .  A
C377        H389   1.082       .  S
C378        H390   1.082       .  S
C378        C379   1.375       .  A
C379        H391   1.082       .  S
C380        C456   1.483       .  S
C381        C452   1.487       .  S
C382        C445   1.494       .  S
C383        C449   1.487       .  S
N394        C399   1.354       .  A
N394        C398   1.353       .  A
N394        H426   1.034   1_565  S
N395        C402   1.350       .  A
N395        C403   1.352       .  A
N396        C401   1.352       .  A
N396        C400   1.353       .  A
N396        H427   1.034       .  S
N397        C404   1.353   1_565  A
N397        C405   1.352       .  A
C398        C406   1.387       .  A
C398        C414   1.417       .  A
C399        C415   1.417   1_565  A
C399        C407   1.387       .  A
C400        C408   1.386       .  A
C400        C417   1.414       .  A
C401        C416   1.417       .  A
C401        C409   1.389       .  A
C402        C414   1.414       .  A
C402        C410   1.387       .  A
C403        C417   1.415       .  A
C403        C411   1.386       .  A
C404        C412   1.386       .  A
C404        C415   1.416       .  A
C405        C413   1.388   1_565  A
C405        C416   1.419       .  A
C406        H418   1.082       .  S
C406        C407   1.376       .  A
C407        H419   1.082       .  S
C408        H420   1.082       .  S
C408        C409   1.376       .  A
C409        H421   1.082       .  S
C410        H422   1.082       .  S
C410        C411   1.373       .  A
C411        H423   1.082       .  S
C412        H424   1.082       .  S
C412        C413   1.374       .  A
C413        H425   1.082       .  S
C414        C437   1.482       .  S
C415        C440   1.489       .  S
C416        C433   1.484       .  S
C417        C428   1.485       .  S
C428        C429   1.344   1_565  D
C428        H430   1.085       .  S
C432        C433   1.339   1_545  D
C433        H435   1.086       .  S
C436        C437   1.338   1_545  D
C437        H439   1.086       .  S
C440        C441   1.341   1_545  D
C440        H442   1.086       .  S
C444        C934   1.480       .  S
C444        C445   1.342       .  D
C444        H446   1.087       .  S
C445       H1059   1.086       .  S
H447       C1057   1.086       .  S
C448        C449   1.340       .  D
C448       H1062   1.087       .  S
C449        H451   1.086       .  S
H450       C1060   1.087       .  S
C452        C453   1.340       .  D
C452        H454   1.086       .  S
C453        C939   1.473       .  S
C453       H1067   1.087       .  S
H455       C1065   1.087       .  S
C456        C457   1.343       .  D
C456       H1070   1.085       .  S
C457        H459   1.087       .  S
H458       C1068   1.086       .  S
C460        C497   1.446       .  S
C460        C610   1.472       .  S
C460       N1090   1.356       .  A
N461        N478   1.331       .  A
N461       N1095   1.321   1_455  A
C462        C500   1.452       .  S
C462        N487   1.339       .  A
C462        H507   1.081       .  S
H463        C504   1.081       .  S
C464       C1080   1.448       .  S
C464        N488   1.336       .  A
C464        H493   1.081       .  S
Co465       N505   2.096       .  S
Co465       N481   2.089       .  S
Co465      Cl815   2.454   1_565  S
N466        C504   1.345       .  A
N466       Co467   2.094       .  S
Co467       N470   2.107       .  S
Co467      Cl968   2.460   1_556  S
C468       C1076   1.448       .  S
C468        C601   1.473       .  S
C468        N506   1.356       .  A
N469        N499   1.323       .  A
N469       Co502   2.079   1_556  S
N470       N1100   1.321       .  A
N470        N506   1.330       .  A
N471        N481   1.326       .  A
H472        C497   1.081       .  S
N473        N494   1.323       .  A
N474       N1104   1.320       .  A
N474        N479   1.322       .  A
C475        C503   1.469   1_655  S
C475       C1209   1.476       .  S
C475       N1091   1.344       .  A
N476        C491   1.343       .  A
C477       C1092   1.468       .  S
C477        N505   1.346       .  A
C477        H511   1.081       .  S
N478       C1072   1.357   1_455  A
N479       C1087   1.344       .  A
C480       C1089   1.467   1_455  S
C480       C1218   1.470       .  S
C480        N501   1.343       .  A
N482        C508   1.339       .  A
N482       Co498   2.084       .  S
N483        C497   1.335       .  A
N483       N1073   1.321       .  A
N484        N512   1.327       .  A
H485        C508   1.081       .  S
H486        C503   1.081       .  S
N488       N1082   1.321   1_455  A
N488       Co502   2.075   1_556  S
N489        N501   1.321       .  A
N489       N1117   1.321   1_455  A
N489       Co498   2.072       .  S
C490        C594   1.475       .  S
C490        N494   1.346       .  A
C491        C510   1.464   1_565  S
C491        H495   1.081       .  S
N492        C503   1.348       .  A
N492       N1086   1.321   1_455  A
C496        N512   1.352       .  A
N505       N1101   1.320       .  A
Cl509      Co771   2.455   1_455  S
Cl509      Co926   2.456   1_455  S
C510        C585   1.473       .  S
N513        C518   1.353       .  A
N513        C517   1.354       .  A
N513        H545   1.032       .  S
N514        C521   1.352       .  A
N514        C522   1.353       .  A
N515        C520   1.354       .  A
N515        C519   1.353       .  A
N515        H546   1.032       .  S
N516        C523   1.352       .  A
N516        C524   1.351       .  A
C517        C525   1.388       .  A
C517        C533   1.422       .  A
C518        C534   1.418       .  A
C518        C526   1.386       .  A
C519        C527   1.386       .  A
C519        C536   1.416       .  A
C520        C535   1.421       .  A
C520        C528   1.388       .  A
C521        C533   1.417       .  A
C521        C529   1.387       .  A
C522        C536   1.418       .  A
C522        C530   1.387       .  A
C523        C531   1.387       .  A
C523        C534   1.416       .  A
C524        C532   1.387       .  A
C524        C535   1.416       .  A
C525        H537   1.082       .  S
C525        C526   1.378       .  A
C526        H538   1.082       .  S
C527        H539   1.082       .  S
C527        C528   1.377       .  A
C528        H540   1.082       .  S
C529        H541   1.082       .  S
C529        C530   1.374       .  A
C530        H542   1.082       .  S
C531        H543   1.082       .  S
C531        C532   1.374       .  A
C532        H544   1.082       .  S
C533        C609   1.490       .  S
C534        C605   1.487       .  S
C535        C598   1.487       .  S
C536        C602   1.487       .  S
N547        C552   1.354   1_565  A
N547        C551   1.353       .  A
N547        H579   1.032   1_565  S
N548        C555   1.351       .  A
N548        C556   1.353       .  A
N549        C554   1.353       .  A
N549        C553   1.353       .  A
N549        H580   1.035       .  S
N550        C557   1.352   1_565  A
N550        C558   1.352       .  A
C551        C559   1.388       .  A
C551        C567   1.420       .  A
C552        C568   1.419       .  A
C552        C560   1.387   1_545  A
C553        C561   1.386       .  A
C553        C570   1.413       .  A
C554        C569   1.417       .  A
C554        C562   1.389       .  A
C555        C567   1.415       .  A
C555        C563   1.387       .  A
C556        C570   1.415       .  A
C556        C564   1.386       .  A
C557        C565   1.387       .  A
C557        C568   1.417       .  A
C558        C566   1.387   1_565  A
C558        C569   1.418       .  A
C559        H571   1.082       .  S
C559        C560   1.376       .  A
C560        H572   1.082       .  S
C561        H573   1.082       .  S
C561        C562   1.376       .  A
C562        H574   1.082       .  S
C563        H575   1.082       .  S
C563        C564   1.373       .  A
C564        H576   1.082       .  S
C565        H577   1.082       .  S
C565        C566   1.374       .  A
C566        H578   1.082       .  S
C567        C590   1.485       .  S
C568        C593   1.488       .  S
C569        C586   1.485       .  S
C570        C581   1.485       .  S
C581        C582   1.345   1_565  D
C581        H583   1.085       .  S
C585        C586   1.340   1_545  D
C586        H588   1.086       .  S
C589        C590   1.339   1_545  D
C590        H592   1.087       .  S
C593        C594   1.340   1_545  D
C593        H595   1.085       .  S
C597       C1087   1.473       .  S
C597        C598   1.339       .  D
C597        H599   1.087       .  S
C598       H1212   1.086       .  S
H600       C1210   1.086       .  S
C601        C602   1.338       .  D
C601       H1215   1.087       .  S
C602        H604   1.086       .  S
H603       C1213   1.087       .  S
C605        C606   1.338       .  D
C605        H607   1.086       .  S
C606       C1092   1.474       .  S
C606       H1220   1.087       .  S
H608       C1218   1.087       .  S
C609        C610   1.338       .  D
C609       H1223   1.086       .  S
C610        H612   1.087       .  S
H611       C1221   1.086       .  S
C613        C650   1.458   1_455  S
C613        C763   1.477       .  S
N614        N631   1.327       .  A
N614       Co804   2.100       .  S
C615        C653   1.450       .  S
C615        N640   1.338       .  A
C615        H660   1.081       .  S
H616        C657   1.081       .  S
C617        N641   1.338       .  A
C617        H646   1.081       .  S
Co618       N789   2.081   1_554  S
Co618       N779   2.084   1_554  S
Co618       N658   2.095       .  S
Co618       N634   2.096       .  S
N619        C657   1.345       .  A
N619        N932   1.320   1_545  A
N619       Co620   2.093       .  S
Co620       N623   2.095       .  S
Co620       N793   2.085       .  S
Co620       N780   2.077       .  S
C621        C754   1.471       .  S
C621        N659   1.353   1_455  A
N622        N935   1.320   1_545  A
N622        N652   1.322       .  A
N622       Co655   2.075       .  S
N623        N659   1.328       .  A
N624        C959   1.353       .  A
N624        N634   1.327       .  A
H625        C650   1.081       .  S
N626        N925   1.320       .  A
N626        N647   1.323       .  A
N626       Co771   2.080       .  S
N627        N632   1.321       .  A
N627       Co773   2.070   1_554  S
C628        C656   1.466       .  S
N629        C644   1.343       .  A
N629        N928   1.321       .  A
N629       Co804   2.090       .  S
C630        N658   1.346       .  A
C630        H664   1.081       .  S
C633        N654   1.346       .  A
N634        N946   1.321       .  A
N635        C661   1.340       .  A
N635        N943   1.321       .  A
N635       Co651   2.085       .  S
N636        C650   1.339       .  A
N636       Co771   2.081       .  S
N637        N941   1.321   1_545  A
N637        N665   1.327       .  A
N637       Co808   2.095       .  S
H638        C661   1.081       .  S
H639        C656   1.081       .  S
N640        N940   1.321   1_545  A
N640       Co773   2.081   1_554  S
N641       Co655   2.080       .  S
N642        N654   1.323       .  A
N642       Co651   2.080       .  S
C643        C963   1.465       .  S
C643        C747   1.472       .  S
C643        N647   1.345       .  A
C644        C663   1.463       .  S
C644        H648   1.081       .  S
N645        C656   1.345       .  A
N645       Co808   2.095       .  S
C649        C967   1.460   1_545  S
C649       C1041   1.479       .  S
C649        N665   1.352       .  A
Co651       N767   2.097   1_554  S
Co651       N782   2.093   1_554  S
Co651      Cl968   2.457       .  S
N652        C969   1.345       .  A
C653       C1048   1.469       .  S
C653        N930   1.352   1_545  A
Co655       N790   2.091       .  S
Co655       N798   2.090       .  S
Co655      Cl815   2.453       .  S
C657        C949   1.466   1_545  S
C661        C955   1.459       .  S
Cl662      Co957   2.459   1_545  S
Cl662      Co808   2.446       .  S
C663        C738   1.476       .  S
C663        N958   1.348       .  A
N666        C671   1.353       .  A
N666        C670   1.352       .  A
N666        H698   1.036       .  S
N667        C674   1.353       .  A
N667        C675   1.351       .  A
N668        C673   1.353       .  A
N668        C672   1.353       .  A
N668        H699   1.034   1_655  S
N669        C676   1.352       .  A
N669        C677   1.352   1_655  A
C670        C678   1.386       .  A
C670        C686   1.413       .  A
C671        C687   1.416       .  A
C671        C679   1.389       .  A
C672        C680   1.387       .  A
C672        C689   1.419       .  A
C673        C688   1.419   1_655  A
C673        C681   1.388       .  A
C674        C686   1.415       .  A
C674        C682   1.386       .  A
C675        C689   1.414       .  A
C675        C683   1.386       .  A
C676        C684   1.387   1_655  A
C676        C687   1.418       .  A
C677        C685   1.387       .  A
C677        C688   1.416       .  A
C678        H690   1.082       .  S
C678        C679   1.377       .  A
C679        H691   1.082       .  S
C680        H692   1.082       .  S
C680        C681   1.376       .  A
C681        H693   1.082       .  S
C682        H694   1.082       .  S
C682        C683   1.373       .  A
C683        H695   1.082       .  S
C684        H696   1.082       .  S
C684        C685   1.374       .  A
C685        H697   1.082       .  S
C686        C762   1.485       .  S
C687        C758   1.488       .  S
C688        C751   1.486       .  S
C689        C755   1.486       .  S
N700        C705   1.353       .  A
N700        C704   1.354       .  A
N700        H732   1.036       .  S
N701        C708   1.351       .  A
N701        C709   1.352       .  A
N702        C707   1.353       .  A
N702        C706   1.353       .  A
N702        H733   1.037       .  S
N703        C710   1.352       .  A
N703        C711   1.353       .  A
C704        C712   1.388       .  A
C704        C720   1.418       .  A
C705        C721   1.417       .  A
C705        C713   1.387       .  A
C706        C714   1.386       .  A
C706        C723   1.414       .  A
C707        C722   1.417       .  A
C707        C715   1.389       .  A
C708        C720   1.414       .  A
C708        C716   1.386       .  A
C709        C723   1.415       .  A
C709        C717   1.387       .  A
C710        C718   1.387       .  A
C710        C721   1.416       .  A
C711        C719   1.386       .  A
C711        C722   1.417       .  A
C712        H724   1.082       .  S
C712        C713   1.375       .  A
C713        H725   1.082       .  S
C714        H726   1.082       .  S
C714        C715   1.376       .  A
C715        H727   1.082       .  S
C716        H728   1.082       .  S
C716        C717   1.372       .  A
C717        H729   1.082       .  S
C718        H730   1.082       .  S
C718        C719   1.374       .  A
C719        H731   1.082       .  S
C720        C743   1.486       .  S
C721        C746   1.485       .  S
C722        C739   1.487       .  S
C723        C734   1.484       .  S
C734        C735   1.344       .  D
C734        H736   1.085       .  S
C735        C955   1.475       .  S
C735       H1043   1.087       .  S
H737       C1041   1.087       .  S
C738        C739   1.342       .  D
C738       H1046   1.087       .  S
C739        H741   1.085       .  S
H740       C1044   1.087       .  S
C742        C959   1.471       .  S
C742        C743   1.339       .  D
C742       H1050   1.087       .  S
C743        H745   1.086       .  S
H744       C1048   1.087       .  S
C746        C747   1.339       .  D
C746        H748   1.085       .  S
C747       H1055   1.087       .  S
H749       C1053   1.087       .  S
C750        C751   1.338   1_655  D
C750        H752   1.087       .  S
C754        C755   1.339   1_455  D
C755        H757   1.087       .  S
C758        C759   1.339   1_655  D
C758        H760   1.086       .  S
C762        C763   1.345   1_655  D
C763        H765   1.087       .  S
C766        C803   1.459   1_455  S
C766        C916   1.475       .  S
N767        N784   1.327       .  A
C768        C806   1.453       .  S
C768        N793   1.339       .  A
C768        H813   1.082       .  S
H769        C810   1.081       .  S
C770        N794   1.339       .  A
C770        H799   1.081       .  S
Co771       N811   2.091       .  S
Co771       N787   2.095       .  S
N772        C810   1.345       .  A
N772       N1085   1.320   1_545  A
N772       Co773   2.088       .  S
Co773       N776   2.095       .  S
C774        C907   1.471       .  S
C774        N812   1.354   1_455  A
N775       N1088   1.321   1_545  A
N775        N805   1.322       .  A
N775       Co808   2.079   1_556  S
N776        N812   1.329       .  A
N777       C1112   1.353       .  A
N777        N787   1.328       .  A
H778        C803   1.081       .  S
N779       N1078   1.321       .  A
N779        N800   1.323       .  A
N780        N785   1.321       .  A
C781        C809   1.466       .  S
N782        C797   1.345       .  A
N782       N1081   1.321       .  A
C783        N811   1.344       .  A
C783        H817   1.081       .  S
C786        N807   1.346       .  A
N787       N1099   1.321       .  A
N788        C814   1.341       .  A
N788       N1096   1.321       .  A
N788       Co804   2.088       .  S
N789        C803   1.339       .  A
N790       N1094   1.320   1_545  A
N790        N818   1.326       .  A
H791        C814   1.081       .  S
H792        C809   1.081       .  S
N793       N1093   1.321   1_545  A
N794       Co808   2.084   1_556  S
N795        N807   1.323       .  A
N795       Co804   2.081       .  S
C796       C1116   1.467       .  S
C796        C900   1.477       .  S
C796        N800   1.346       .  A
C797        C816   1.466       .  S
C797        H801   1.081       .  S
N798        C809   1.346       .  A
C802       C1120   1.458   1_545  S
C802       C1194   1.475       .  S
C802        N818   1.352       .  A
Co804     Cl1121   2.448       .  S
N805       C1122   1.345       .  A
C806       C1201   1.472       .  S
C806       N1083   1.352   1_545  A
C810       C1102   1.465   1_545  S
C814       C1108   1.460       .  S
Cl815     Co1110   2.447   1_545  S
C816        C891   1.478       .  S
C816       N1111   1.347       .  A
N819        C824   1.353       .  A
N819        C823   1.352       .  A
N819        H851   1.033       .  S
N820        C827   1.352       .  A
N820        C828   1.350       .  A
N821        C826   1.353   1_655  A
N821        C825   1.355       .  A
N821        H852   1.034   1_655  S
N822        C829   1.353       .  A
N822        C830   1.353   1_655  A
C823        C831   1.387       .  A
C823        C839   1.415       .  A
C824        C840   1.417       .  A
C824        C832   1.388       .  A
C825        C833   1.388       .  A
C825        C842   1.420       .  A
C826        C841   1.418       .  A
C826        C834   1.387   1_455  A
C827        C839   1.416       .  A
C827        C835   1.387       .  A
C828        C842   1.415       .  A
C828        C836   1.387       .  A
C829        C837   1.387   1_655  A
C829        C840   1.419       .  A
C830        C838   1.386       .  A
C830        C841   1.417       .  A
C831        H843   1.082       .  S
C831        C832   1.377       .  A
C832        H844   1.082       .  S
C833        H845   1.082       .  S
C833        C834   1.376       .  A
C834        H846   1.082       .  S
C835        H847   1.082       .  S
C835        C836   1.373       .  A
C836        H848   1.082       .  S
C837        H849   1.082       .  S
C837        C838   1.374       .  A
C838        H850   1.082       .  S
C839        C915   1.485       .  S
C840        C911   1.486       .  S
C841        C904   1.488       .  S
C842        C908   1.487       .  S
N853        C858   1.354       .  A
N853        C857   1.355       .  A
N853        H885   1.034       .  S
N854        C861   1.353       .  A
N854        C862   1.353       .  A
N855        C860   1.354       .  A
N855        C859   1.353       .  A
N855        H886   1.036       .  S
N856        C863   1.353       .  A
N856        C864   1.354       .  A
C857        C865   1.387       .  A
C857        C873   1.419       .  A
C858        C874   1.418       .  A
C858        C866   1.387       .  A
C859        C867   1.386       .  A
C859        C876   1.415       .  A
C860        C875   1.419       .  A
C860        C868   1.389       .  A
C861        C873   1.416       .  A
C861        C869   1.386       .  A
C862        C876   1.416       .  A
C862        C870   1.387       .  A
C863        C871   1.386       .  A
C863        C874   1.417       .  A
C864        C872   1.387       .  A
C864        C875   1.419       .  A
C865        H877   1.082       .  S
C865        C866   1.377       .  A
C866        H878   1.082       .  S
C867        H879   1.082       .  S
C867        C868   1.376       .  A
C868        H880   1.082       .  S
C869        H881   1.082       .  S
C869        C870   1.373       .  A
C870        H882   1.082       .  S
C871        H883   1.082       .  S
C871        C872   1.374       .  A
C872        H884   1.081       .  S
C873        C896   1.490       .  S
C874        C899   1.489       .  S
C875        C892   1.491       .  S
C876        C887   1.487       .  S
C887        C888   1.344       .  D
C887        H889   1.085       .  S
C888       C1108   1.477       .  S
C888       H1196   1.087       .  S
H890       C1194   1.086       .  S
C891        C892   1.342       .  D
C891       H1199   1.087       .  S
C892        H894   1.086       .  S
H893       C1197   1.087       .  S
C895       C1112   1.476       .  S
C895        C896   1.341       .  D
C895       H1203   1.087       .  S
C896        H898   1.086       .  S
H897       C1201   1.087       .  S
C899        C900   1.341       .  D
C899        H901   1.085       .  S
C900       H1208   1.087       .  S
H902       C1206   1.087       .  S
C903        C904   1.339   1_655  D
C903        H905   1.087       .  S
C907        C908   1.338   1_455  D
C908        H910   1.087       .  S
C911        C912   1.340   1_655  D
C911        H913   1.086       .  S
C915        C916   1.343   1_655  D
C916        H918   1.087       .  S
C919        C956   1.447       .  S
C919       C1069   1.472       .  S
N920        N937   1.326       .  A
N920      Co1110   2.091       .  S
C921        C959   1.450       .  S
C921        N946   1.338       .  A
C921        H966   1.081       .  S
H922        C963   1.081       .  S
C923        N947   1.339       .  A
C923        H952   1.081       .  S
Co924      N1095   2.077   1_554  S
Co924      N1085   2.087   1_554  S
Co924       N964   2.100       .  S
Co924       N940   2.090       .  S
N925        C963   1.344       .  A
N925       Co926   2.092       .  S
Co926       N929   2.100       .  S
Co926      N1099   2.089       .  S
Co926      N1086   2.077       .  S
C927       C1060   1.472       .  S
C927        N965   1.355   1_455  A
N928        N958   1.324       .  A
N928       Co961   2.088       .  S
N929        N965   1.329       .  A
N930        N940   1.327       .  A
H931        C956   1.081       .  S
N932        N953   1.323       .  A
N932      Co1077   2.081       .  S
N933        N938   1.323       .  A
N933      Co1079   2.084   1_554  S
C934        C962   1.468       .  S
N935        C950   1.342       .  A
N935      Co1110   2.087       .  S
C936        N964   1.346       .  A
C936        H970   1.081       .  S
C939        N960   1.346       .  A
N941        C967   1.341       .  A
N941       Co957   2.090       .  S
N942        C956   1.335       .  A
N942      Co1077   2.072       .  S
N943        N971   1.326       .  A
N943      Co1114   2.090       .  S
H944        C967   1.081       .  S
H945        C962   1.081       .  S
N946      Co1079   2.080   1_554  S
N947       Co961   2.081       .  S
N948        N960   1.323       .  A
N948       Co957   2.079       .  S
C949       C1053   1.474       .  S
C949        N953   1.345       .  A
C950        C969   1.464   1_565  S
C950        H954   1.081       .  S
N951        C962   1.348       .  A
N951      Co1114   2.103       .  S
C955        N971   1.351       .  A
Co957      N1073   2.106   1_554  S
Co957      N1088   2.091   1_554  S
Co961      N1096   2.090       .  S
Co961      N1104   2.100       .  S
Co961     Cl1121   2.459       .  S
Cl968     Co1114   2.452       .  S
C969       C1044   1.469       .  S
N972        C977   1.354   1_455  A
N972        C976   1.352       .  A
N972       H1004   1.035       .  S
N973        C980   1.352       .  A
N973        C981   1.352       .  A
N974        C979   1.351       .  A
N974        C978   1.353   1_455  A
N974       H1005   1.034       .  S
N975        C982   1.352       .  A
N975        C983   1.353       .  A
C976        C984   1.387   1_455  A
C976        C992   1.417       .  A
C977        C993   1.420       .  A
C977        C985   1.388       .  A
C978        C986   1.389       .  A
C978        C995   1.419       .  A
C979        C994   1.414       .  A
C979        C987   1.386   1_455  A
C980        C992   1.417       .  A
C980        C988   1.387       .  A
C981        C995   1.416   1_455  A
C981        C989   1.386       .  A
C982        C990   1.386       .  A
C982        C993   1.416   1_455  A
C983        C991   1.387       .  A
C983        C994   1.417       .  A
C984        H996   1.082       .  S
C984        C985   1.378       .  A
C985        H997   1.082       .  S
C986        H998   1.082       .  S
C986        C987   1.377       .  A
C987        H999   1.082       .  S
C988       H1000   1.082       .  S
C988        C989   1.374       .  A
C989       H1001   1.082       .  S
C990       H1002   1.082       .  S
C990        C991   1.375       .  A
C991       H1003   1.082       .  S
C992       C1068   1.486       .  S
C993       C1064   1.488       .  S
C994       C1057   1.485       .  S
C995       C1061   1.488       .  S
N1006      C1011   1.354       .  A
N1006      C1010   1.353       .  A
N1006      H1038   1.034   1_565  S
N1007      C1014   1.351       .  A
N1007      C1015   1.354       .  A
N1008      C1013   1.352       .  A
N1008      C1012   1.354       .  A
N1008      H1039   1.036   1_565  S
N1009      C1016   1.352   1_565  A
N1009      C1017   1.351       .  A
C1010      C1018   1.389       .  A
C1010      C1026   1.419       .  A
C1011      C1027   1.415   1_565  A
C1011      C1019   1.386       .  A
C1012      C1020   1.386       .  A
C1012      C1029   1.413       .  A
C1013      C1028   1.415       .  A
C1013      C1021   1.388       .  A
C1014      C1026   1.416       .  A
C1014      C1022   1.387       .  A
C1015      C1029   1.415       .  A
C1015      C1023   1.385       .  A
C1016      C1024   1.386       .  A
C1016      C1027   1.414       .  A
C1017      C1025   1.387   1_565  A
C1017      C1028   1.415       .  A
C1018      H1030   1.082       .  S
C1018      C1019   1.376       .  A
C1019      H1031   1.082       .  S
C1020      H1032   1.082       .  S
C1020      C1021   1.375       .  A
C1021      H1033   1.082       .  S
C1022      H1034   1.082       .  S
C1022      C1023   1.373       .  A
C1023      H1035   1.082       .  S
C1024      H1036   1.082       .  S
C1024      C1025   1.373       .  A
C1025      H1037   1.082       .  S
C1026      C1049   1.484       .  S
C1027      C1052   1.486       .  S
C1028      C1045   1.481       .  S
C1029      C1040   1.488       .  S
C1040      C1041   1.345   1_565  D
C1040      H1042   1.085       .  S
C1044      C1045   1.338   1_545  D
C1045      H1047   1.085       .  S
C1048      C1049   1.338   1_545  D
C1049      H1051   1.086       .  S
C1052      C1053   1.340   1_545  D
C1052      H1054   1.085       .  S
C1056      C1057   1.339   1_655  D
C1056      H1058   1.087       .  S
C1060      C1061   1.339   1_455  D
C1061      H1063   1.086       .  S
C1064      C1065   1.339   1_655  D
C1064      H1066   1.086       .  S
C1068      C1069   1.337   1_455  D
C1069      H1071   1.087       .  S
C1072      C1109   1.448       .  S
C1072      C1222   1.475       .  S
N1073      N1090   1.331       .  A
C1074      C1112   1.453       .  S
C1074      N1099   1.340       .  A
C1074      H1119   1.081       .  S
H1075      C1116   1.081       .  S
C1076      N1100   1.336       .  A
C1076      H1105   1.082       .  S
Co1077     N1117   2.094       .  S
Co1077     N1093   2.090       .  S
N1078      C1116   1.346       .  A
N1078     Co1079   2.098       .  S
Co1079     N1082   2.095       .  S
C1080      C1213   1.471       .  S
C1080      N1118   1.354   1_455  A
N1081      N1111   1.324       .  A
N1081     Co1114   2.089   1_556  S
N1082      N1118   1.328       .  A
N1083      N1093   1.327       .  A
H1084      C1109   1.081       .  S
N1085      N1106   1.323       .  A
N1086      N1091   1.322       .  A
C1087      C1115   1.466       .  S
N1088      C1103   1.344       .  A
C1089      N1117   1.345       .  A
C1089      H1123   1.081       .  S
C1092      N1113   1.344       .  A
N1094      C1120   1.338       .  A
N1094     Co1110   2.080       .  S
N1095      C1109   1.336       .  A
N1096      N1124   1.326       .  A
H1097      C1120   1.081       .  S
H1098      C1115   1.081       .  S
N1100     Co1114   2.073   1_556  S
N1101      N1113   1.322       .  A
N1101     Co1110   2.075       .  S
C1102      C1206   1.474       .  S
C1102      N1106   1.346       .  A
C1103      C1122   1.465   1_565  S
C1103      H1107   1.081       .  S
N1104      C1115   1.346       .  A
C1108      N1124   1.351       .  A
C1122      C1197   1.471       .  S
N1125      C1130   1.351       .  A
N1125      C1129   1.354   1_655  A
N1125      H1157   1.032       .  S
N1126      C1133   1.352       .  A
N1126      C1134   1.352   1_455  A
N1127      C1132   1.354   1_655  A
N1127      C1131   1.351       .  A
N1127      H1158   1.031       .  S
N1128      C1135   1.351       .  A
N1128      C1136   1.351   1_655  A
C1129      C1137   1.388       .  A
C1129      C1145   1.421       .  A
C1130      C1146   1.418       .  A
C1130      C1138   1.387   1_655  A
C1131      C1139   1.387   1_655  A
C1131      C1148   1.419       .  A
C1132      C1147   1.420       .  A
C1132      C1140   1.388       .  A
C1133      C1145   1.418       .  A
C1133      C1141   1.386   1_455  A
C1134      C1148   1.418       .  A
C1134      C1142   1.387       .  A
C1135      C1143   1.388       .  A
C1135      C1146   1.417       .  A
C1136      C1144   1.387   1_455  A
C1136      C1147   1.417       .  A
C1137      H1149   1.082       .  S
C1137      C1138   1.378       .  A
C1138      H1150   1.082       .  S
C1139      H1151   1.082       .  S
C1139      C1140   1.378       .  A
C1140      H1152   1.082       .  S
C1141      H1153   1.082       .  S
C1141      C1142   1.375       .  A
C1142      H1154   1.082       .  S
C1143      H1155   1.082       .  S
C1143      C1144   1.376       .  A
C1144      H1156   1.082       .  S
C1145      C1221   1.491       .  S
C1146      C1217   1.482       .  S
C1147      C1210   1.488       .  S
C1148      C1214   1.485       .  S
N1159      C1164   1.353       .  A
N1159      C1163   1.353   1_545  A
N1159      H1191   1.034       .  S
N1160      C1167   1.352       .  A
N1160      C1168   1.353       .  A
N1161      C1166   1.352       .  A
N1161      C1165   1.352       .  A
N1161      H1192   1.035   1_565  S
N1162      C1169   1.353   1_565  A
N1162      C1170   1.353       .  A
C1163      C1171   1.388       .  A
C1163      C1179   1.419       .  A
C1164      C1180   1.417       .  A
C1164      C1172   1.387   1_545  A
C1165      C1173   1.387       .  A
C1165      C1182   1.413       .  A
C1166      C1181   1.416       .  A
C1166      C1174   1.389       .  A
C1167      C1179   1.416       .  A
C1167      C1175   1.386       .  A
C1168      C1182   1.416       .  A
C1168      C1176   1.386       .  A
C1169      C1177   1.386       .  A
C1169      C1180   1.417       .  A
C1170      C1178   1.387   1_565  A
C1170      C1181   1.419       .  A
C1171      H1183   1.082       .  S
C1171      C1172   1.376       .  A
C1172      H1184   1.082       .  S
C1173      H1185   1.082       .  S
C1173      C1174   1.375       .  A
C1174      H1186   1.082       .  S
C1175      H1187   1.082       .  S
C1175      C1176   1.372       .  A
C1176      H1188   1.082       .  S
C1177      H1189   1.082       .  S
C1177      C1178   1.373       .  A
C1178      H1190   1.082       .  S
C1179      C1202   1.486       .  S
C1180      C1205   1.487       .  S
C1181      C1198   1.484       .  S
C1182      C1193   1.484       .  S
C1193      C1194   1.344   1_565  D
C1193      H1195   1.085       .  S
C1197      C1198   1.338   1_545  D
C1198      H1200   1.086       .  S
C1201      C1202   1.340   1_545  D
C1202      H1204   1.086       .  S
C1205      C1206   1.340   1_545  D
C1205      H1207   1.085       .  S
C1209      C1210   1.338   1_655  D
C1209      H1211   1.087       .  S
C1213      C1214   1.337   1_455  D
C1214      H1216   1.086       .  S
C1217      C1218   1.336   1_655  D
C1217      H1219   1.085       .  S
C1221      C1222   1.339   1_455  D
C1222      H1224   1.087       .  S
