geometry optimzed in LAMMPS
_audit_creation_date              2020-11-30 
_audit_creation_method            'lammps2cif' 
_symmetry_space_group_name_H-M    'P1' 
_symmetry_Int_Tables_number       1 
_symmetry_cell_setting            triclinic 
loop_ 
_symmetry_equiv_pos_as_xyz 
  x,y,z 
_cell_length_a                    46.05501349 
_cell_length_b                    29.248136505960613 
_cell_length_c                    56.610279738748865 
_cell_angle_alpha                 92.7361963823187 
_cell_angle_beta                  90.49250709983036 
_cell_angle_gamma                 89.13884860869693 
loop_ 
_atom_site_label 
_atom_site_type_symbol 
_atom_site_fract_x 
_atom_site_fract_y 
_atom_site_fract_z 
_atom_site_charge 
O1          O  0.09068533  0.07880706  0.22426211    -0.72900
O2          O  0.13710402  0.18562050  0.24541507    -0.73900
O3          O  0.08709795  0.17247362  0.21573140    -0.62500
O4          O  0.14240082  0.09009415  0.25244145    -0.70900
O5          O  0.16755639  0.07909910  0.21941717    -0.70500
O6          O  0.11718794  0.16593515  0.18551114    -0.61700
O7          O  0.16712183  0.17635789  0.21508007    -0.74200
O8          O  0.11565085  0.07188729  0.19111423    -0.73000
Cu9        Cu  0.11354676  0.13217713  0.23565778     1.04600
Cu10       Cu  0.14304046  0.12289738  0.20179499     1.04300
C11         C  0.09345156  0.06191309  0.20331756     0.93300
C12         C  0.15932890  0.19799835  0.23425976     0.92400
C13         C  0.09309816  0.17986028  0.19415343     0.84600
C14         C  0.16360118  0.07082320  0.24105303     0.90900
N15         N  0.94880053  0.99965133  0.13357792    -0.36600
N16         N  0.90658914  0.48490887  0.09755999    -0.57100
N17         N  0.94982099  0.51228575  0.06301246    -0.36600
N18         N  0.99225176  0.51519613  0.10151352    -0.57100
C19         C  0.92632778  0.98167678  0.14478700     0.27000
C20         C  0.97320670  0.98997822  0.14588611     0.27000
C21         C  0.92910120  0.49508664  0.04811685     0.27000
C22         C  0.97521318  0.51239772  0.05094092     0.27000
C23         C  0.88804604  0.99602600  0.11540860     0.35600
C24         C  0.88969275  0.48740837  0.07791909     0.35600
C25         C  0.00563809  0.03158591  0.12055682     0.35600
C26         C  0.00558843  0.53828318  0.08480630     0.35600
C27         C  0.93632687  0.95945868  0.16440104    -0.21800
C28         C  0.96617166  0.96420781  0.16494542    -0.21800
C29         C  0.94103425  0.48756446  0.02578699    -0.21800
C30         C  0.97025514  0.49680920  0.02779082    -0.21800
C31         C  0.85962897  0.00157939  0.10758214    -0.22900
C32         C  0.86072346  0.48963725  0.08434133    -0.22900
C33         C  0.02839608  0.06055836  0.11662388    -0.22900
C34         C  0.02839934  0.56311566  0.09471236    -0.22900
C35         C  0.89712942  0.99154926  0.13934062    -0.18200
C36         C  0.00059124  0.00914651  0.14162308    -0.18200
C37         C  0.00244428  0.52676064  0.06055162    -0.19000
C38         C  0.89993131  0.48533777  0.05422814    -0.18200
H39         H  0.92334430  0.94332568  0.17740570     0.14700
H40         H  0.98074507  0.95224555  0.17849519     0.14700
H41         H  0.93015116  0.47449911  0.00989927     0.14700
H42         H  0.98592670  0.49220163  0.01375470     0.14700
H43         H  0.84012437  0.00479155  0.11803681     0.13000
H44         H  0.84192704  0.49121833  0.07281358     0.12900
H45         H  0.04424538  0.07316016  0.12939476     0.13000
H46         H  0.04411815  0.58267682  0.08548587     0.12900
H47         H  0.94664948  0.02371216  0.12068608     0.26200
H48         H  0.94651094  0.52501789  0.08024392     0.26200
N49         N  0.94822072  0.24029878  0.12689660    -0.36600
N50         N  0.99308344  0.26151173  0.09345214    -0.57100
N51         N  0.95431463  0.24112082  0.05318579    -0.36600
N52         N  0.90899564  0.22147203  0.08704624    -0.57100
C53         C  0.97239469  0.23379927  0.14024208     0.27000
C54         C  0.92616490  0.21950204  0.13758450     0.27000
C55         C  0.97650474  0.26036526  0.04181402     0.27000
C56         C  0.93079932  0.24201236  0.03859308     0.27000
C57         C  0.00766410  0.26943842  0.11404047     0.35600
C58         C  0.01027245  0.27605766  0.07621806     0.35600
C59         C  0.88985020  0.22052664  0.10503797     0.35600
C60         C  0.89306716  0.21702259  0.06689991     0.35600
C61         C  0.96543221  0.20891827  0.15962131    -0.21800
C62         C  0.93612617  0.20082840  0.15818387    -0.21800
C63         C  0.96748422  0.27079745  0.01924315    -0.21800
C64         C  0.93859305  0.26045310  0.01747569    -0.21800
C65         C  0.03383592  0.29024259  0.10994692    -0.22900
C66         C  0.03547085  0.29460335  0.08602310    -0.22900
C67         C  0.86187325  0.21634679  0.09626348    -0.22900
C68         C  0.86411230  0.21051284  0.07240595    -0.22900
C69         C  0.00040410  0.25046077  0.13563681    -0.18200
C70         C  0.89729040  0.21673131  0.12912817    -0.18200
C71         C  0.90197653  0.23009683  0.04423622    -0.18200
C72         C  0.00373503  0.27351731  0.05172139    -0.18200
H73         H  0.97986690  0.19815460  0.17354920     0.14700
H74         H  0.92366828  0.18253169  0.17062851     0.14700
H75         H  0.98166457  0.28545325  0.33907496     0.14700
H76         H  0.92596184  0.26997524  0.33593322     0.14700
H77         H  0.05048713  0.29963154  0.12281921     0.13000
H78         H  0.05341411  0.30920713  0.07689054     0.12900
H79         H  0.84178554  0.21598373  0.10600105     0.13000
H80         H  0.84587185  0.20639039  0.06033837     0.12900
H81         H  0.94624671  0.26030191  0.11238637     0.26200
H82         H  0.95534720  0.22772159  0.06985398     0.26200
O83         O  0.09626236  0.45488181  0.31809345    -0.72900
O84         O  0.14116549  0.35875231  0.27987212    -0.73900
O85         O  0.09218592  0.36064277  0.31041362    -0.62500
O86         O  0.14491702  0.45602345  0.28741807    -0.70900
O87         O  0.17517920  0.44520228  0.31748025    -0.70500
O88         O  0.12230933  0.34823098  0.34032392    -0.61700
O89         O  0.17199046  0.34855230  0.30955366    -0.74200
O90         O  0.12473119  0.44388801  0.01422563    -0.73000
Cu91       Cu  0.11784971  0.40804215  0.29780355     1.04600
Cu92       Cu  0.15007454  0.39625963  0.32990979     1.04300
C93         C  0.10297130  0.46166843  0.33990006     0.93300
C94         C  0.16317990  0.33796863  0.28857544     0.92400
C95         C  0.09798040  0.34154769  0.32972658     0.84600
C96         C  0.16859419  0.46486367  0.29844932     0.90900
C97         C  0.67371546  0.21233023  0.27684908     0.86500
C98         C  0.68990777  0.18730890  0.25655193    -0.53700
C99         C  0.70666185  0.21425883  0.24342969     0.09500
C100        C  0.70435677  0.26559856  0.25110890     0.20400
C101        C  0.69703857  0.23973195  0.29094499    -0.54400
C102        C  0.71285684  0.26788680  0.27752839     0.09600
C103        C  0.65557777  0.24890234  0.26495912    -0.54000
C104        C  0.67137723  0.27721821  0.25148137     0.10100
H105        H  0.68974212  0.15044165  0.25371623     0.14700
H106        H  0.71721643  0.28829030  0.24014972     0.00400
H107        H  0.70082142  0.23859709  0.97544300     0.15000
H108        H  0.63229714  0.25282081  0.26749202     0.14700
C109        C  0.72207600  0.03583357  0.25083438     0.86500
C110        C  0.74078353  0.99838470  0.26102247    -0.53700
C111        C  0.72570675  0.46791851  0.27629707     0.09500
C112        C  0.69291057  0.48113204  0.27886993     0.20400
C113        C  0.69753815  0.00991409  0.23739166    -0.54400
C114        C  0.68204976  0.48091399  0.25311235     0.09600
C115        C  0.70767484  0.06009240  0.27214554    -0.54000
C116        C  0.69148741  0.03280599  0.28541680     0.10100
H117        H  0.76391795  0.49141604  0.25898340     0.14700
H118        H  0.68070529  0.45841717  0.29028591     0.00400
H119        H  0.69344205  0.01229821  0.21856929     0.15000
H120        H  0.70816532  0.09688207  0.27539073     0.14700
O121        O  0.66375179  0.17249738  0.31252255    -0.72900
O122        O  0.62186138  0.07729780  0.34793765    -0.73900
O123        O  0.67228848  0.07735212  0.31782184    -0.62500
O124        O  0.61433343  0.17051184  0.34268631    -0.70900
O125        O  0.58594228  0.15652653  0.31154720    -0.70500
O126        O  0.64329668  0.06140939  0.28705631    -0.61700
O127        O  0.59310396  0.06335643  0.31703394    -0.74200
O128        O  0.63586006  0.15689009  0.28115333    -0.73000
Cu129      Cu  0.64416517  0.12474748  0.33123504     1.04600
Cu130      Cu  0.61374889  0.10894151  0.29803218     1.04300
C131        C  0.65659793  0.17945114  0.29108799     0.93300
C132        C  0.59904970  0.05899931  0.33890750     0.92400
C133        C  0.66732147  0.05587947  0.29808183     0.84600
C134        C  0.58994671  0.17527618  0.33211336     0.90900
O135        O  0.63981845  0.43339415  0.25498346    -0.72900
O136        O  0.58580871  0.33897260  0.22365713    -0.73900
O137        O  0.63582992  0.33594659  0.25264542    -0.62500
O138        O  0.58721235  0.43557003  0.22681529    -0.70900
O139        O  0.61258043  0.43195136  0.19375769    -0.70500
O140        O  0.66506737  0.33353841  0.22167432    -0.61700
O141        O  0.61450421  0.33585528  0.19239358    -0.74200
O142        O  0.66495600  0.43206288  0.22171165    -0.73000
Cu143      Cu  0.61142857  0.38628943  0.24074753     1.04600
Cu144      Cu  0.64042132  0.38352191  0.20637760     1.04300
C145        C  0.66098480  0.44759193  0.24286348     0.93300
C146        C  0.59153665  0.32379125  0.20257152     0.92400
C147        C  0.65723081  0.31781966  0.24136968     0.84600
C148        C  0.59032139  0.44664606  0.20551684     0.90900
O149        O  0.23708379  0.43513216  0.21866458    -0.72900
O150        O  0.28446544  0.33358505  0.18716848    -0.73900
O151        O  0.23291863  0.33735906  0.21531360    -0.62500
O152        O  0.28853041  0.42940606  0.19099685    -0.70900
O153        O  0.31564652  0.42254571  0.22317174    -0.70500
O154        O  0.25945770  0.33346207  0.24807397    -0.61700
O155        O  0.31092502  0.32694077  0.21969201    -0.74200
O156        O  0.26448830  0.42948944  0.25087859    -0.73000
Cu157      Cu  0.25967210  0.38398933  0.20195138     1.04600
Cu158      Cu  0.28842660  0.37791885  0.23661297     1.04300
C159        C  0.24346016  0.44829974  0.23988299     0.93300
C160        C  0.30621841  0.31626883  0.19784403     0.92400
C161        C  0.23726560  0.32147642  0.23575077     0.84600
C162        C  0.31174090  0.43845212  0.20277618     0.90900
C163        C  0.22489606  0.48312523  0.25327869     0.86500
C164        C  0.20869139  0.45987778  0.27237862    -0.53700
C165        C  0.19133071  0.48796912  0.28591262     0.09500
C166        C  0.19169782  0.03950104  0.27910217     0.20400
C167        C  0.20155234  0.00898671  0.23899373    -0.54400
C168        C  0.18437825  0.03892963  0.25234422     0.09600
C169        C  0.24144431  0.02120383  0.26649029    -0.54000
C170        C  0.22461307  0.05085077  0.28006750     0.10100
H171        H  0.20888159  0.42282517  0.27367508     0.14700
H172        H  0.17781847  0.06319839  0.29016099     0.00400
H173        H  0.19966496  0.00491131  0.21987716     0.15000
H174        H  0.26485296  0.02422736  0.26507595     0.14700
O175        O  0.30944182  0.10947260  0.31582709    -0.72900
O176        O  0.25929731  0.20177240  0.28319614    -0.73900
O177        O  0.30756030  0.20427582  0.31496208    -0.62500
O178        O  0.26160576  0.10547187  0.28363568    -0.70900
O179        O  0.22882982  0.10795779  0.31216046    -0.70500
O180        O  0.27896505  0.20362870  0.34626145    -0.61700
O181        O  0.22936474  0.20566283  0.31380367    -0.74200
O182        O  0.27748655  0.10888824  0.34474425    -0.73000
Cu183      Cu  0.28525286  0.15545223  0.29828859     1.04600
Cu184      Cu  0.25235744  0.15706776  0.33021919     1.04300
C185        C  0.30213965  0.09663896  0.33621454     0.93300
C186        C  0.23601207  0.21700309  0.29304841     0.92400
C187        C  0.30312806  0.21342989  0.33686884     0.84600
C188        C  0.23847648  0.09044173  0.29257513     0.90900
C189        C  0.17802065  0.23354042  0.24659422     0.86500
C190        C  0.16059178  0.27045149  0.26072794    -0.53700
C191        C  0.17711232  0.29975742  0.27442733     0.09500
C192        C  0.21018830  0.28926562  0.27259504     0.20400
C193        C  0.19928709  0.26060362  0.23202265    -0.54400
C194        C  0.21615669  0.29009439  0.24568400     0.09600
C195        C  0.19677847  0.21003972  0.26477443    -0.54000
C196        C  0.21380508  0.23835707  0.27822795     0.10100
H197        H  0.13704067  0.27310789  0.26000409     0.14700
H198        H  0.22391536  0.31280187  0.28369849     0.00400
H199        H  0.20069469  0.25717165  0.21288546     0.15000
H200        H  0.19752736  0.17303534  0.26618948     0.14700
N201        N  0.44833767  0.00316639  0.06326037    -0.36600
N202        N  0.49199226  0.50258779  0.10022946    -0.57100
N203        N  0.44865375  0.51064396  0.13540124    -0.36600
N204        N  0.40458240  0.51018545  0.09930761    -0.57100
C205        C  0.47287119  0.01491862  0.05219315     0.27000
C206        C  0.42536524  0.02034398  0.05129920     0.27000
C207        C  0.47237809  0.52329040  0.14819919     0.27000
C208        C  0.42499117  0.52410442  0.14789103     0.27000
C209        C  0.50674099  0.98622521  0.08204537     0.35600
C210        C  0.50753209  0.49128747  0.11945214     0.35600
C211        C  0.38893066  0.00021500  0.08031080     0.35600
C212        C  0.38870471  0.49891486  0.11806215     0.35600
C213        C  0.46548657  0.03919771  0.03251480    -0.21800
C214        C  0.43543950  0.04232470  0.03186415    -0.21800
C215        C  0.46362382  0.54608484  0.16905957    -0.21800
C216        C  0.43357572  0.54617975  0.16896139    -0.21800
C217        C  0.53169156  0.96325281  0.08902760    -0.22900
C218        C  0.53173036  0.46525318  0.11272386    -0.22900
C219        C  0.36282742  0.98133466  0.08651447    -0.22900
C220        C  0.36298080  0.47884439  0.11039013    -0.22900
C221        C  0.50134126  0.00173387  0.05922818    -0.18200
C222        C  0.39585187  0.01450588  0.05757182    -0.18200
C223        C  0.39645292  0.51061102  0.14181442    -0.18200
C224        C  0.50108381  0.50852301  0.14256019    -0.18200
H225        H  0.48013735  0.05145695  0.35330112     0.14700
H226        H  0.42283734  0.05850347  0.35206808     0.14700
H227        H  0.47741226  0.55925433  0.18331046     0.14700
H228        H  0.41965657  0.55948116  0.18306761     0.14700
H229        H  0.54860985  0.94862477  0.07772787     0.13000
H230        H  0.54849450  0.45163898  0.12402194     0.12900
H231        H  0.34540573  0.97024911  0.07473267     0.13000
H232        H  0.34562566  0.46671408  0.12110321     0.12900
H233        H  0.44728420  0.98156770  0.07734987     0.26200
H234        H  0.44841217  0.48733737  0.12090370     0.26200
N235        N  0.45253837  0.21438874  0.07446235    -0.36600
N236        N  0.49602742  0.20871870  0.11006725    -0.57100
N237        N  0.45313747  0.20493907  0.14786523    -0.36600
N238        N  0.41030202  0.20620810  0.10986759    -0.57100
C239        C  0.47570683  0.23110551  0.06355465     0.27000
C240        C  0.42857337  0.23026958  0.06350701     0.27000
C241        C  0.47670502  0.22350386  0.15874942     0.27000
C242        C  0.42937530  0.22444064  0.15832862     0.27000
C243        C  0.51275347  0.20220552  0.09067542     0.35600
C244        C  0.51239726  0.19757610  0.12884170     0.35600
C245        C  0.39325180  0.19984607  0.09057285     0.35600
C246        C  0.39418867  0.19641186  0.12862486     0.35600
C247        C  0.46646411  0.25806854  0.04536866    -0.21800
C248        C  0.43650138  0.25786772  0.04547286    -0.21800
C249        C  0.46786003  0.25435866  0.17675503    -0.21800
C250        C  0.43791107  0.25509255  0.17640981    -0.21800
C251        C  0.53976443  0.18500574  0.09698882    -0.22900
C252        C  0.53968920  0.18276509  0.12127949    -0.22900
C253        C  0.36649787  0.18354044  0.09689719    -0.22900
C254        C  0.36700121  0.18167067  0.12111758    -0.22900
C255        C  0.50467472  0.21803474  0.06827630    -0.18200
C256        C  0.40014976  0.21667741  0.06843553    -0.18200
C257        C  0.40038748  0.21541441  0.15133500    -0.18200
C258        C  0.50578587  0.21420694  0.15201647    -0.18200
H259        H  0.47992612  0.27523191  0.03306782     0.14700
H260        H  0.42221732  0.27470762  0.03322200     0.14700
H261        H  0.48151276  0.27516760  0.18847069     0.14700
H262        H  0.42403786  0.27638455  0.18784184     0.14700
H263        H  0.55816638  0.17791382  0.08558642     0.13000
H264        H  0.55818767  0.17457231  0.13230195     0.12900
H265        H  0.34781843  0.17774687  0.08554256     0.13000
H266        H  0.34859221  0.17493736  0.13212873     0.12900
H267        H  0.45315352  0.18828927  0.08639144     0.26200
H268        H  0.45332719  0.17931998  0.13437309     0.26200
O269        O  0.72612056  0.17016655  0.21059067    -0.72900
O270        O  0.78309594  0.07222079  0.18677131    -0.73900
O271        O  0.73251245  0.07513863  0.21549152    -0.62500
O272        O  0.77761154  0.16644802  0.18099064    -0.70900
O273        O  0.80620429  0.17942309  0.21227771    -0.70500
O274        O  0.75973522  0.09047066  0.24736985    -0.61700
O275        O  0.81021721  0.08573502  0.21882904    -0.74200
O276        O  0.75494136  0.18560529  0.24150845    -0.73000
Cu277      Cu  0.75376170  0.12092369  0.19737327     1.04600
Cu278      Cu  0.78356726  0.13608001  0.23112596     1.04300
C279        C  0.73093221  0.19133910  0.23050154     0.93300
C280        C  0.80612782  0.06461714  0.19881634     0.92400
C281        C  0.73906953  0.06851513  0.23700432     0.84600
C282        C  0.80078027  0.18312509  0.19030698     0.90900
O283        O  0.80819567  0.30731241  0.30354738    -0.72900
O284        O  0.76158999  0.40874005  0.27515326    -0.73900
O285        O  0.81428218  0.40160504  0.30197874    -0.62500
O286        O  0.75567253  0.31205741  0.27534988    -0.70900
O287        O  0.73036028  0.31877425  0.30854419    -0.70500
O288        O  0.78662258  0.41498841  0.33351646    -0.61700
O289        O  0.73335090  0.41562817  0.30675362    -0.74200
O290        O  0.78229245  0.31958275  0.33605125    -0.73000
Cu291      Cu  0.78554742  0.35702063  0.28767798     1.04600
Cu292      Cu  0.75709189  0.36743892  0.32223760     1.04300
C293        C  0.80415671  0.30123055  0.32549920     0.93300
C294        C  0.74051435  0.42842714  0.28646838     0.92400
C295        C  0.81039841  0.42061608  0.32248297     0.84600
C296        C  0.73409684  0.30081471  0.28772318     0.90900
C297        C  0.35299829  0.19736414  0.01380067    -0.05700
C298        C  0.32894605  0.22262262  0.35196469     0.00200
C299        C  0.32867368  0.25319497  0.04043229    -0.08400
C300        C  0.35337858  0.25170006  0.05534098    -0.05700
C301        C  0.37682606  0.22142897  0.05034822     0.00200
C302        C  0.37655155  0.19341495  0.02933052    -0.08300
C303        C  0.39978246  0.15691807  0.02399839     0.62100
H304        H  0.35262814  0.17553437  0.99781573     0.12800
H305        H  0.35405760  0.27252793  0.07167400     0.12800
C306        C  0.30395370  0.28336037  0.37896833     0.62300
F307        F  0.39182702  0.12741315  0.00527343    -0.22800
F308        F  0.40427235  0.13112783  0.04356728    -0.20200
F309        F  0.42550971  0.17695968  0.01811805    -0.19800
F310        F  0.27908248  0.25876073  0.05169014    -0.19900
F311        F  0.29762847  0.30995288  0.35998646    -0.20200
F312        F  0.31028934  0.31228435  0.39834421    -0.22900
C313        C  0.35195075  0.06358655  0.05400445    -0.05700
C314        C  0.37114723  0.03187855  0.04271185     0.00200
C315        C  0.36530465  0.01764237  0.01879943    -0.08400
C316        C  0.34366767  0.04115187  0.33884938    -0.05700
C317        C  0.32352002  0.07067819  0.35060852     0.00200
C318        C  0.32728270  0.08119274  0.04265922    -0.08300
C319        C  0.30538824  0.10934055  0.05740179     0.62100
H320        H  0.35624680  0.07402218  0.07229704     0.12800
H321        H  0.34121436  0.03437882  0.31994301     0.12800
C322        C  0.38211547  0.47914085  0.00433717     0.62300
F323        F  0.31292002  0.11218460  0.08114699    -0.22800
F324        F  0.27849473  0.08898185  0.05569555    -0.20200
F325        F  0.30204118  0.14996657  0.38332104    -0.19800
F326        F  0.40103925  0.45483219  0.01822449    -0.19900
F327        F  0.39757171  0.49798900  0.98645786    -0.20200
F328        F  0.36358884  0.45156090  0.32705217    -0.22900
C329        C  0.32710316  0.50047385  0.17733816    -0.05700
C330        C  0.33507411  0.46432307  0.19166870     0.00200
C331        C  0.36463913  0.44961298  0.19240177    -0.08400
C332        C  0.38425385  0.46819043  0.17677090    -0.05700
C333        C  0.37576308  0.50172828  0.16114285     0.00200
C334        C  0.34725587  0.52066789  0.16262915    -0.08300
C335        C  0.33696415  0.56148828  0.14908214     0.62100
H336        H  0.30474057  0.51263011  0.17734097     0.12800
H337        H  0.40626755  0.45475095  0.17566913     0.12800
C338        C  0.37544933  0.41257350  0.20841288     0.62300
F339        F  0.32585792  0.59475730  0.16483618    -0.22800
F340        F  0.31522653  0.54813993  0.13333527    -0.20200
F341        F  0.35822827  0.08230483  0.13759754    -0.19800
F342        F  0.36077369  0.37248835  0.20329771    -0.19900
F343        F  0.37116849  0.42658653  0.23181389    -0.20200
F344        F  0.40480211  0.40315579  0.20559126    -0.22900
C345        C  0.36163158  0.27438987  0.15223117    -0.05700
C346        C  0.37582915  0.23925505  0.16400627     0.00200
C347        C  0.36527182  0.22615263  0.18598622    -0.08400
C348        C  0.34191278  0.25139618  0.19635472    -0.05700
C349        C  0.32771272  0.28685713  0.18456767     0.00200
C350        C  0.33702319  0.29723116  0.16153606    -0.08300
C351        C  0.32176218  0.33260304  0.14671477     0.62100
H352        H  0.36990531  0.28318045  0.13520184     0.12800
H353        H  0.33440724  0.24340687  0.21373832     0.12800
C354        C  0.37789556  0.18475769  0.19780746     0.62300
F355        F  0.33484722  0.33657084  0.12498079    -0.22800
F356        F  0.32231339  0.37509189  0.15839971    -0.20200
F357        F  0.29332869  0.31991916  0.14238239    -0.19800
F358        F  0.40672249  0.19165275  0.20364142    -0.19900
F359        F  0.37586946  0.14662899  0.18249458    -0.20200
F360        F  0.36323202  0.17597539  0.21829821    -0.22900
C361        C  0.57379116  0.50147741  0.17550351    -0.05700
C362        C  0.56651787  0.47238736  0.19354440     0.00200
C363        C  0.53658591  0.46284890  0.19713598    -0.08400
C364        C  0.51590981  0.47832316  0.18086577    -0.05700
C365        C  0.52345896  0.50431397  0.16178230     0.00200
C366        C  0.55264722  0.51906511  0.16006085    -0.08300
C367        C  0.56285435  0.55228921  0.14215711     0.62100
H368        H  0.59639756  0.50984454  0.17309623     0.12800
H369        H  0.49362386  0.46746776  0.18201057     0.12800
C370        C  0.52611102  0.43349397  0.21675628     0.62300
F371        F  0.57704469  0.58810298  0.15389894    -0.22800
F372        F  0.53882862  0.07075462  0.13006556    -0.20200
F373        F  0.58212842  0.53010839  0.12672342    -0.19800
F374        F  0.53376046  0.45326146  0.23854940    -0.19900
F375        F  0.53814341  0.39009772  0.21410854    -0.20200
F376        F  0.49620577  0.42893737  0.21649603    -0.22900
C377        C  0.56008209  0.25522055  0.19969952    -0.05700
C378        C  0.57093324  0.29396647  0.18914477     0.00200
C379        C  0.56141749  0.30439377  0.16601933    -0.08400
C380        C  0.54045473  0.27678205  0.15484021    -0.05700
C381        C  0.52932165  0.23855221  0.16537200     0.00200
C382        C  0.53966053  0.22654904  0.18789144    -0.08300
C383        C  0.52936610  0.18377527  0.19920104     0.62100
H384        H  0.56776600  0.24756473  0.21723284     0.12800
H385        H  0.53211578  0.28511486  0.13759214     0.12800
C386        C  0.57216311  0.34542940  0.15325882     0.62300
F387        F  0.54593612  0.17404560  0.21891375    -0.22800
F388        F  0.53142503  0.14662982  0.18320817    -0.20200
F389        F  0.50081030  0.18957841  0.20612911    -0.19800
F390        F  0.60138381  0.34013015  0.14831850    -0.19900
F391        F  0.56764665  0.38470102  0.16718530    -0.20200
F392        F  0.55769425  0.35105648  0.13201816    -0.22900
C393        C  0.51846058  0.18938982  0.02830585    -0.05700
C394        C  0.52573699  0.21691517  0.04835944     0.00200
C395        C  0.55248663  0.24032065  0.04884918    -0.08400
C396        C  0.57293710  0.22888409  0.03109475    -0.05700
C397        C  0.56554785  0.19739997  0.34558422     0.00200
C398        C  0.53647176  0.18212033  0.34291580    -0.08300
C399        C  0.52553883  0.15519942  0.32106350     0.62100
H400        H  0.49750786  0.17300294  0.02785144     0.12800
H401        H  0.59440458  0.24353932  0.03252465     0.12800
C402        C  0.56048622  0.27747121  0.06731069     0.62300
F403        F  0.49570885  0.14981680  0.32141144    -0.22800
F404        F  0.53825819  0.11208244  0.31971803    -0.20200
F405        F  0.53192227  0.17828402  0.30102509    -0.19800
F406        F  0.58373257  0.26271026  0.08072025    -0.19900
F407        F  0.53782192  0.28983652  0.08224801    -0.20200
F408        F  0.56851604  0.31621204  0.05602085    -0.22900
C409        C  0.55791589  0.00567750  0.34326957    -0.05700
C410        C  0.57726892  0.03736904  0.35407688     0.00200
C411        C  0.57302642  0.05564001  0.04528092    -0.08400
C412        C  0.54717051  0.04331924  0.05610822    -0.05700
C413        C  0.52730481  0.01302367  0.04506091     0.00200
C414        C  0.53306004  0.99066299  0.35487877    -0.08300
C415        C  0.51495112  0.95437588  0.34185491     0.62100
H416        H  0.56205598  0.99278976  0.32531710     0.12800
H417        H  0.54212618  0.05736515  0.07367546     0.12800
C418        C  0.59406031  0.08608896  0.05941661     0.62300
F419        F  0.53225697  0.91623604  0.33662539    -0.22800
F420        F  0.50525266  0.97277519  0.98853496    -0.20200
F421        F  0.49156837  0.94040319  0.35464284    -0.19800
F422        F  0.59597843  0.12800847  0.04934563    -0.19900
F423        F  0.61968937  0.06583384  0.39288927    -0.20200
F424        F  0.58536272  0.09404736  0.08262773    -0.22900
C425        C  0.05213813  0.25780469  0.36269555    -0.05700
C426        C  0.02606791  0.29079375  0.03569409     0.00200
C427        C  0.02610399  0.33672988  0.02880354    -0.08400
C428        C  0.04910281  0.35085999  0.01500165    -0.05700
C429        C  0.07417850  0.31887246  0.34177422     0.00200
C430        C  0.07568124  0.27377432  0.34969081    -0.08300
C431        C  0.10168439  0.24279965  0.34414091     0.62100
H432        H  0.05259686  0.22328507  0.36883318     0.12800
H433        H  0.04937875  0.38611409  0.00982233     0.12800
C434        C  0.00327869  0.37279610  0.03592637     0.62300
F435        F  0.09815237  0.19948918  0.35246375    -0.22800
F436        F  0.12640063  0.26118844  0.35458499    -0.20200
F437        F  0.10550566  0.23846748  0.31992436    -0.19800
F438        F  0.98128585  0.35694238  0.04961524    -0.19900
F439        F  0.99093435  0.39006658  0.01579154    -0.20200
F440        F  0.01649351  0.40795552  0.04880516    -0.22900
C441        C  0.83121016  0.16381232  0.15638828    -0.05700
C442        C  0.82423072  0.19646235  0.17446695     0.00200
C443        C  0.84218762  0.23498096  0.17845953    -0.08400
C444        C  0.86653430  0.23943359  0.16377143    -0.05700
C445        C  0.87370698  0.20609362  0.14592214     0.00200
C446        C  0.85614446  0.16675383  0.14268785    -0.08300
C447        C  0.86223712  0.12711519  0.12496712     0.62100
H448        H  0.81774625  0.13382884  0.15375394     0.12800
H449        H  0.87992866  0.26951501  0.16576832     0.12800
C450        C  0.83488016  0.27217600  0.19714656     0.62300
F451        F  0.85841830  0.08662007  0.13577512    -0.22800
F452        F  0.89018535  0.12688724  0.11625781    -0.20200
F453        F  0.84266640  0.12816665  0.10634975    -0.19800
F454        F  0.83609284  0.25474600  0.21939199    -0.19900
F455        F  0.80722356  0.28924871  0.19302606    -0.20200
F456        F  0.85407070  0.30814888  0.19688109    -0.22900
C457        C  0.84395217  0.24257101  0.32891740    -0.05700
C458        C  0.82697790  0.27835766  0.33954172     0.00200
C459        C  0.83438966  0.29507791  0.02893409    -0.08400
C460        C  0.86114935  0.28249867  0.03837933    -0.05700
C461        C  0.87780637  0.24599761  0.02864639     0.00200
C462        C  0.86887066  0.22492801  0.34036339    -0.08300
C463        C  0.88416465  0.18214513  0.33020739     0.62100
H464        H  0.83739946  0.22823049  0.31173412     0.12800
H465        H  0.86850143  0.29876782  0.05490516     0.12800
C466        C  0.81468356  0.32650238  0.04416851     0.62300
F467        F  0.86770743  0.16045871  0.31255327    -0.22800
F468        F  0.88896740  0.15147510  0.34773943    -0.20200
F469        F  0.91046222  0.19327124  0.32065073    -0.19800
F470        F  0.78840996  0.30541805  0.04731084    -0.19900
F471        F  0.81008994  0.36756913  0.03381143    -0.20200
F472        F  0.82639964  0.33631218  0.06642188    -0.22900
C473        C  0.05015228  0.48744178  0.05707903    -0.05700
C474        C  0.03012171  0.51788097  0.04710349     0.00200
C475        C  0.03707865  0.53688125  0.02533697    -0.08400
C476        C  0.06372313  0.52029787  0.34673978    -0.05700
C477        C  0.08185908  0.48605981  0.35591755     0.00200
C478        C  0.07540187  0.47193769  0.04539032    -0.08300
C479        C  0.09581140  0.43945317  0.05799799     0.62100
H480        H  0.04514251  0.47420669  0.07408586     0.12800
H481        H  0.06870555  0.53334182  0.32965020     0.12800
C482        C  0.02263337  0.57734985  0.34855135     0.62300
F483        F  0.08679437  0.43178767  0.08070991    -0.22800
F484        F  0.12324694  0.45795747  0.05977141    -0.20200
F485        F  0.09713034  0.39750167  0.04580281    -0.19800
F486        F  0.99948228  0.59292955  0.36221362    -0.19900
F487        F  0.00767444  0.56302406  0.99400627    -0.20200
F488        F  0.04143871  0.61340429  0.34661240    -0.22900
C489        C  0.85805818  0.50061038  0.02677355    -0.05700
C490        C  0.87918762  0.46964016  0.03498924     0.00200
C491        C  0.87942159  0.42370914  0.02564937    -0.08400
C492        C  0.85814740  0.41037108  0.00877677    -0.05700
C493        C  0.83543479  0.44230614  0.33513274     0.00200
C494        C  0.83595001  0.48875138  0.34317855    -0.08300
C495        C  0.81237284  0.52180635  0.33565507     0.62100
H496        H  0.85943526  0.53908072  0.36501405     0.12800
H497        H  0.85743167  0.37511274  0.00202456     0.12800
C498        C  0.89986689  0.38735025  0.03509457     0.62300
F499        F  0.81781311  0.56621021  0.34386652    -0.22800
F500        F  0.78593467  0.50908739  0.34447057    -0.20200
F501        F  0.81067409  0.52111584  0.31122416    -0.19800
F502        F  0.89263472  0.37951869  0.05818724    -0.19900
F503        F  0.92842228  0.40029773  0.03453381    -0.20200
F504        F  0.89816239  0.34675320  0.02172761    -0.22900
C505        C  0.85739067  0.05912415  0.18854889    -0.05700
C506        C  0.83049463  0.03752541  0.18803718     0.00200
C507        C  0.82755838  0.99494194  0.17532938    -0.08400
C508        C  0.85094010  0.97832224  0.16116531    -0.05700
C509        C  0.87665120  0.00333161  0.15928349     0.00200
C510        C  0.88065418  0.04315842  0.17444460    -0.08300
C511        C  0.90819905  0.07150614  0.17473636     0.62100
H512        H  0.85939680  0.09088577  0.19903600     0.12800
H513        H  0.84869653  0.94701199  0.15034428     0.12800
C514        C  0.80038269  0.96676176  0.17730138     0.62300
F515        F  0.90453376  0.11281062  0.18739171    -0.22800
F516        F  0.91613327  0.08128056  0.15207596    -0.20200
F517        F  0.93053284  0.04806551  0.18542621    -0.19800
F518        F  0.77674737  0.98926685  0.16783354    -0.19900
F519        F  0.79520899  0.95955596  0.20086727    -0.20200
F520        F  0.80320670  0.92446027  0.16541875    -0.22900
C521        C  0.04333062  0.20173837  0.14178460    -0.05700
C522        C  0.02514754  0.23665616  0.15110124     0.00200
C523        C  0.03119134  0.25683931  0.17380395    -0.08400
C524        C  0.05354370  0.23741229  0.18754829    -0.05700
C525        C  0.07139900  0.20147890  0.17836054     0.00200
C526        C  0.06714589  0.18503247  0.15444682    -0.08300
C527        C  0.08690788  0.14936527  0.14205693     0.62100
H528        H  0.03861921  0.18779047  0.12411469     0.12800
H529        H  0.05760472  0.25070528  0.20543365     0.12800
C530        C  0.01509581  0.29965203  0.18289291     0.62300
F531        F  0.07794680  0.13852979  0.11908365    -0.22800
F532        F  0.08710536  0.10957501  0.15419355    -0.20200
F533        F  0.11479163  0.16588900  0.14078516    -0.19800
F534        F  0.98591031  0.29099724  0.18527673    -0.19900
F535        F  0.01834917  0.33386335  0.16711116    -0.20200
F536        F  0.02572913  0.31548118  0.20468081    -0.22900
C537        C  0.01749068  0.03180030  0.18198281    -0.05700
C538        C  0.02383729  0.00938450  0.16020804     0.00200
C539        C  0.05283586  0.99452788  0.15559564    -0.08400
C540        C  0.07496184  0.00886911  0.17137433    -0.05700
C541        C  0.06902745  0.03591107  0.19195910     0.00200
C542        C  0.03939919  0.04462574  0.19831131    -0.08300
C543        C  0.03036154  0.06989342  0.22129629     0.62100
H544        H  0.99520723  0.04233092  0.18533903     0.12800
H545        H  0.09735488  0.00079958  0.16685693     0.12800
C546        C  0.06201780  0.96596173  0.13379186     0.62300
F547        F  0.03967320  0.11462183  0.22168205    -0.22800
F548        F  0.04203294  0.04784095  0.24034950    -0.20200
F549        F  0.00049935  0.07128120  0.22401854    -0.19800
F550        F  0.07942826  0.48579926  0.12237511    -0.19900
F551        F  0.04008657  0.44132867  0.12417951    -0.20200
F552        F  0.07999880  0.42445253  0.14485120    -0.22900
O553        O  0.08955372  0.07640909  0.55761252    -0.72900
O554        O  0.13642434  0.18261610  0.57968125    -0.73900
O555        O  0.08603845  0.17055388  0.55040369    -0.62500
O556        O  0.14197791  0.08638931  0.58549618    -0.70900
O557        O  0.16712262  0.07700725  0.55237786    -0.70500
O558        O  0.11584598  0.16459488  0.51999999    -0.61700
O559        O  0.16594194  0.17473999  0.54896152    -0.74200
O560        O  0.11483519  0.06988387  0.52461390    -0.73000
Cu561      Cu  0.11275555  0.12934098  0.56953428     1.04600
Cu562      Cu  0.14206000  0.12120383  0.53550579     1.04300
C563        C  0.09255975  0.05957935  0.53665425     0.93300
C564        C  0.15827699  0.19584584  0.56832479     0.92400
C565        C  0.09181638  0.17823758  0.52883274     0.84600
C566        C  0.16325158  0.06777961  0.57388439     0.90900
N567        N  0.95001838  0.99392223  0.46540045    -0.36600
N568        N  0.90703509  0.48625358  0.42919545    -0.57100
N569        N  0.95076744  0.51359902  0.39527797    -0.36600
N570        N  0.99332412  0.51175890  0.43403391    -0.57100
C571        C  0.92708983  0.97654637  0.47629518     0.27000
C572        C  0.97418266  0.98249904  0.47766140     0.27000
C573        C  0.93011811  0.49671235  0.38021305     0.27000
C574        C  0.97638029  0.51253248  0.38354444     0.27000
C575        C  0.88909731  0.99304911  0.44694565     0.35600
C576        C  0.89034830  0.49160238  0.40966170     0.35600
C577        C  0.00780832  0.02476741  0.45351073     0.35600
C578        C  0.00656865  0.53635423  0.41787676     0.35600
C579        C  0.93652273  0.95288606  0.49560463    -0.21800
C580        C  0.96646323  0.95621162  0.49633451    -0.21800
C581        C  0.94244919  0.48772140  0.35813107    -0.21800
C582        C  0.97174918  0.49635143  0.36043160    -0.21800
C583        C  0.86067906  0.99844002  0.43914983    -0.22900
C584        C  0.86151217  0.49713910  0.41610879    -0.22900
C585        C  0.03059595  0.05429252  0.45073241    -0.22900
C586        C  0.02970305  0.55980201  0.42821946    -0.22900
C587        C  0.89806413  0.98787773  0.47086066    -0.18200
C588        C  0.00198439  0.00092351  0.47402989    -0.18200
C589        C  0.00351660  0.52640010  0.39346003    -0.19000
C590        C  0.90063807  0.48869955  0.38604761    -0.18200
H591        H  0.92312437  0.93673431  0.50832421     0.14700
H592        H  0.98069889  0.94306562  0.50980673     0.14700
H593        H  0.93171660  0.47432441  0.34224358     0.14700
H594        H  0.98770669  0.49107557  0.34663553     0.14700
H595        H  0.84114844  0.00141165  0.44956971     0.13000
H596        H  0.84288302  0.50145455  0.40463435     0.12900
H597        H  0.04671054  0.06469733  0.46378783     0.13000
H598        H  0.04549090  0.57992220  0.41939425     0.12900
H599        H  0.94830470  0.01881848  0.45292018     0.26200
H600        H  0.94736660  0.52695856  0.41239806     0.26200
N601        N  0.94775305  0.24076277  0.45996853    -0.36600
N602        N  0.99400424  0.25713545  0.42635614    -0.57100
N603        N  0.95522139  0.23948410  0.38600094    -0.36600
N604        N  0.90892225  0.22416730  0.41997829    -0.57100
C605        C  0.97157896  0.23243319  0.47336363     0.27000
C606        C  0.92507439  0.22142472  0.47058186     0.27000
C607        C  0.97788198  0.25777604  0.37474567     0.27000
C608        C  0.93165552  0.24251821  0.37156409     0.27000
C609        C  0.00860793  0.26389201  0.44704404     0.35600
C610        C  0.01222973  0.26895919  0.40913263     0.35600
C611        C  0.88938715  0.22306740  0.43768606     0.35600
C612        C  0.89355099  0.21814466  0.39963716     0.35600
C613        C  0.96379985  0.20773795  0.49261857    -0.21800
C614        C  0.93433051  0.20173459  0.49112351    -0.21800
C615        C  0.96897510  0.26963811  0.35235479    -0.21800
C616        C  0.93977740  0.26138686  0.35066396    -0.21800
C617        C  0.03590363  0.28103062  0.44296500    -0.22900
C618        C  0.03821401  0.28424957  0.41903277    -0.22900
C619        C  0.86169594  0.21726086  0.42854466    -0.22900
C620        C  0.86458761  0.21065166  0.40476534    -0.22900
C621        C  0.00005666  0.24706229  0.46890899    -0.18200
C622        C  0.89634772  0.21976418  0.46187165    -0.18200
C623        C  0.90266453  0.23138302  0.37707761    -0.18200
C624        C  0.00562004  0.26840859  0.38463106    -0.18200
H625        H  0.97785262  0.19549898  0.50645049     0.14700
H626        H  0.92134168  0.18359917  0.50333366     0.14700
H627        H  0.98071061  0.28723502  0.67267863     0.14700
H628        H  0.92537292  0.26987052  0.66911680     0.14700
H629        H  0.05279588  0.28882275  0.45589072     0.13000
H630        H  0.05700861  0.29641551  0.41000637     0.12900
H631        H  0.84145923  0.21592071  0.43802965     0.13000
H632        H  0.84672689  0.20538408  0.39241935     0.12900
H633        H  0.94658213  0.26082652  0.44541791     0.26200
H634        H  0.95592580  0.22503075  0.40244299     0.26200
O635        O  0.09548286  0.45664923  0.65028517    -0.72900
O636        O  0.13991711  0.35772932  0.61319710    -0.73900
O637        O  0.09060759  0.36279938  0.64373887    -0.62500
O638        O  0.14430457  0.45520558  0.61958888    -0.70900
O639        O  0.17412285  0.44605148  0.65012253    -0.70500
O640        O  0.12079520  0.35078292  0.67365625    -0.61700
O641        O  0.17084945  0.34905725  0.64292516    -0.74200
O642        O  0.12615478  0.44373401  0.34817579    -0.73000
Cu643      Cu  0.11682557  0.40852385  0.63053585     1.04600
Cu644      Cu  0.14880019  0.39777736  0.66289915     1.04300
C645        C  0.10167663  0.46363455  0.67219148     0.93300
C646        C  0.16201467  0.33734249  0.62206990     0.92400
C647        C  0.09623967  0.34472496  0.66334249     0.84600
C648        C  0.16783897  0.46453276  0.63070411     0.90900
C649        C  0.67446963  0.21143948  0.60901103     0.86500
C650        C  0.69080114  0.18558023  0.58909890    -0.53700
C651        C  0.70768869  0.21188435  0.57576356     0.09500
C652        C  0.70538633  0.26363946  0.58294163     0.20400
C653        C  0.69766398  0.23923801  0.62299894    -0.54400
C654        C  0.71362848  0.26691834  0.60944751     0.09600
C655        C  0.65646461  0.24745028  0.59668578    -0.54000
C656        C  0.67235423  0.27538245  0.58310211     0.10100
H657        H  0.69060947  0.14861375  0.58670702     0.14700
H658        H  0.71836195  0.28592360  0.57185093     0.00400
H659        H  0.70020297  0.23814436  0.30992021     0.15000
H660        H  0.63318882  0.25157885  0.59920068     0.14700
C661        C  0.72310931  0.03298704  0.58413255     0.86500
C662        C  0.74145536  0.99511614  0.59432870    -0.53700
C663        C  0.72550728  0.46792895  0.60889895     0.09500
C664        C  0.69277432  0.48112548  0.61142524     0.20400
C665        C  0.69806414  0.00775486  0.57103738    -0.54400
C666        C  0.68209905  0.48045527  0.58562807     0.09600
C667        C  0.70928280  0.05811882  0.60545189    -0.54000
C668        C  0.69277262  0.03174567  0.61897105     0.10100
H669        H  0.76378674  0.49103682  0.59155455     0.14700
H670        H  0.68053908  0.45851997  0.62288012     0.00400
H671        H  0.69384216  0.00990882  0.55221862     0.15000
H672        H  0.71011489  0.09498988  0.60832594     0.14700
O673        O  0.66399710  0.17341467  0.64500820    -0.72900
O674        O  0.62313609  0.07801655  0.68041178    -0.73900
O675        O  0.67346716  0.07863153  0.65059902    -0.62500
O676        O  0.61423856  0.17083763  0.67505332    -0.70900
O677        O  0.58632276  0.15620836  0.64372776    -0.70500
O678        O  0.64458229  0.06108031  0.61999371    -0.61700
O679        O  0.59426894  0.06348333  0.64964704    -0.74200
O680        O  0.63664637  0.15629960  0.61348831    -0.73000
Cu681      Cu  0.64480147  0.12566386  0.66375334     1.04600
Cu682      Cu  0.61466601  0.10867580  0.63053051     1.04300
C683        C  0.65716057  0.17934330  0.62342300     0.93300
C684        C  0.60037738  0.05948560  0.67150287     0.92400
C685        C  0.66858737  0.05607126  0.63114336     0.84600
C686        C  0.58987334  0.17509086  0.66434120     0.90900
O687        O  0.64065866  0.43171516  0.58779222    -0.72900
O688        O  0.58626999  0.33823238  0.55659461    -0.73900
O689        O  0.63694586  0.33427439  0.58487679    -0.62500
O690        O  0.58803674  0.43449282  0.56028910    -0.70900
O691        O  0.61277698  0.43125780  0.52692793    -0.70500
O692        O  0.66573903  0.33237269  0.55363927    -0.61700
O693        O  0.61447253  0.33517953  0.52503376    -0.74200
O694        O  0.66535706  0.43107631  0.55430689    -0.73000
Cu695      Cu  0.61228851  0.38490587  0.57361952     1.04600
Cu696      Cu  0.64073782  0.38262924  0.53895500     1.04300
C697        C  0.66145511  0.44649131  0.57549514     0.93300
C698        C  0.59156128  0.32331674  0.53539839     0.92400
C699        C  0.65818952  0.31630408  0.57331404     0.84600
C700        C  0.59078506  0.44588622  0.53902161     0.90900
O701        O  0.23620238  0.43281797  0.55113824    -0.72900
O702        O  0.28279963  0.33020315  0.52004725    -0.73900
O703        O  0.23157658  0.33502605  0.54856648    -0.62500
O704        O  0.28747066  0.42600416  0.52332204    -0.70900
O705        O  0.31486609  0.41942952  0.55537960    -0.70500
O706        O  0.25836720  0.33166914  0.58120972    -0.61700
O707        O  0.30954426  0.32391063  0.55244700    -0.74200
O708        O  0.26382660  0.42775035  0.58326872    -0.73000
Cu709      Cu  0.25842827  0.38111472  0.53469080     1.04600
Cu710      Cu  0.28745494  0.37551505  0.56923645     1.04300
C711        C  0.24279089  0.44647593  0.57222867     0.93300
C712        C  0.30459250  0.31292592  0.53066287     0.92400
C713        C  0.23603752  0.31954653  0.56909435     0.84600
C714        C  0.31082844  0.43502316  0.53492647     0.90900
C715        C  0.22432691  0.48162559  0.58546167     0.86500
C716        C  0.20793959  0.45863227  0.60457298    -0.53700
C717        C  0.19066168  0.48699610  0.61802307     0.09500
C718        C  0.19226187  0.03712194  0.61146359     0.20400
C719        C  0.20105036  0.00531778  0.57145103    -0.54400
C720        C  0.18425215  0.03578032  0.58486852     0.09600
C721        C  0.24166685  0.01806354  0.59821944    -0.54000
C722        C  0.22518815  0.04812154  0.61181052     0.10100
H723        H  0.20799109  0.42160850  0.60597393     0.14700
H724        H  0.17875970  0.06128118  0.62258250     0.00400
H725        H  0.19868066  0.00072417  0.55238827     0.15000
H726        H  0.26506268  0.02079878  0.59654099     0.14700
O727        O  0.31074340  0.10707064  0.64740671    -0.72900
O728        O  0.25866757  0.19968659  0.61592731    -0.73900
O729        O  0.30727401  0.20215835  0.64734484    -0.62500
O730        O  0.26224092  0.10279380  0.61537793    -0.70900
O731        O  0.22968858  0.10415895  0.64407637    -0.70500
O732        O  0.27869855  0.19978054  0.67857908    -0.61700
O733        O  0.22913018  0.20176170  0.64675731    -0.74200
O734        O  0.27873212  0.10466160  0.67617213    -0.73000
Cu735      Cu  0.28551222  0.15313481  0.63034496     1.04600
Cu736      Cu  0.25281840  0.15293926  0.66235244     1.04300
C737        C  0.30363600  0.09353294  0.66772427     0.93300
C738        C  0.23548994  0.21445912  0.62619032     0.92400
C739        C  0.30249422  0.21125982  0.66920966     0.84600
C740        C  0.23923900  0.08733394  0.62434516     0.90900
C741        C  0.17682194  0.23175001  0.58055256     0.86500
C742        C  0.15945842  0.26881523  0.59467049    -0.53700
C743        C  0.17602220  0.29837032  0.60824647     0.09500
C744        C  0.20918768  0.28763481  0.60629148     0.20400
C745        C  0.19801957  0.25867123  0.56582968    -0.54400
C746        C  0.21496757  0.28832359  0.57931732     0.09600
C747        C  0.19563200  0.20837156  0.59867729    -0.54000
C748        C  0.21288454  0.23655266  0.61194244     0.10100
H749        H  0.13591207  0.27150309  0.59392542     0.14700
H750        H  0.22303573  0.31119783  0.61726759     0.00400
H751        H  0.19932233  0.25502006  0.54669175     0.15000
H752        H  0.19641410  0.17134986  0.60006072     0.14700
N753        N  0.44792211  0.00092436  0.39624339    -0.36600
N754        N  0.49209892  0.50129757  0.43431350    -0.57100
N755        N  0.44816686  0.50906707  0.46902644    -0.36600
N756        N  0.40458809  0.51106655  0.43228031    -0.57100
C757        C  0.47252326  0.01255876  0.38524512     0.27000
C758        C  0.42510384  0.01888829  0.38440803     0.27000
C759        C  0.47176815  0.52065142  0.48228464     0.27000
C760        C  0.42434578  0.52270245  0.48128942     0.27000
C761        C  0.50642896  0.98379700  0.41499907     0.35600
C762        C  0.50731618  0.48936404  0.45359931     0.35600
C763        C  0.38843523  0.99857143  0.41317298     0.35600
C764        C  0.38815702  0.49997587  0.45077016     0.35600
C765        C  0.46538402  0.03769630  0.36584018    -0.21800
C766        C  0.43542148  0.04150168  0.36526833    -0.21800
C767        C  0.46275663  0.54292548  0.50321205    -0.21800
C768        C  0.43270784  0.54371009  0.50269403    -0.21800
C769        C  0.53158853  0.96147781  0.42204614    -0.22900
C770        C  0.53170118  0.46374409  0.44689283    -0.22900
C771        C  0.36220169  0.97996280  0.41929098    -0.22900
C772        C  0.36223601  0.48118231  0.44264668    -0.22900
C773        C  0.50087545  0.99867013  0.39207052    -0.18200
C774        C  0.39551660  0.01304297  0.39045072    -0.18200
C775        C  0.39574314  0.51018474  0.47472964    -0.18200
C776        C  0.50057695  0.50601252  0.47677454    -0.18200
H777        H  0.48204762  0.05377355  0.68658956     0.14700
H778        H  0.42457239  0.06125659  0.68555056     0.14700
H779        H  0.47633871  0.55545525  0.51773986     0.14700
H780        H  0.41860873  0.55687427  0.51671063     0.14700
H781        H  0.54851945  0.94679929  0.41077466     0.13000
H782        H  0.54830179  0.44980081  0.45823621     0.12900
H783        H  0.34475471  0.96920956  0.40745497     0.13000
H784        H  0.34450640  0.46932096  0.45304122     0.12900
H785        H  0.44672841  0.97887794  0.41014004     0.26200
H786        H  0.44797438  0.48647512  0.45423804     0.26200
N787        N  0.45206875  0.21355542  0.40791482    -0.36600
N788        N  0.49491832  0.20935776  0.44375591    -0.57100
N789        N  0.45167692  0.20464577  0.48118912    -0.36600
N790        N  0.40953069  0.20359296  0.44283663    -0.57100
C791        C  0.47518171  0.23090328  0.39724771     0.27000
C792        C  0.42812451  0.22879503  0.39675480     0.27000
C793        C  0.47478873  0.22492329  0.49189596     0.27000
C794        C  0.42750996  0.22376954  0.49112659     0.27000
C795        C  0.51182710  0.20207874  0.42454818     0.35600
C796        C  0.51090842  0.19830247  0.46271975     0.35600
C797        C  0.39291264  0.19669316  0.42334888     0.35600
C798        C  0.39325095  0.19327156  0.46139881     0.35600
C799        C  0.46592132  0.25768543  0.37898743    -0.21800
C800        C  0.43597615  0.25657841  0.37877002    -0.21800
C801        C  0.46527495  0.25677663  0.50918623    -0.21800
C802        C  0.43532160  0.25614584  0.50864435    -0.21800
C803        C  0.53855483  0.18426507  0.43116731    -0.22900
C804        C  0.53815745  0.18267395  0.45549479    -0.22900
C805        C  0.36631023  0.17931435  0.42932167    -0.22900
C806        C  0.36642594  0.17747628  0.45355899    -0.22900
C807        C  0.50411265  0.21793842  0.40209335    -0.18200
C808        C  0.39988049  0.21421741  0.40140175    -0.18200
C809        C  0.39881615  0.21277999  0.48411792    -0.18200
C810        C  0.50401807  0.21580359  0.48564564    -0.18200
H811        H  0.47936870  0.27508901  0.36676980     0.14700
H812        H  0.42168514  0.27289386  0.36633194     0.14700
H813        H  0.47848402  0.27894763  0.52057530     0.14700
H814        H  0.42096453  0.27762756  0.51956545     0.14700
H815        H  0.55700063  0.17638127  0.41993734     0.13000
H816        H  0.55641702  0.17430931  0.46673703     0.12900
H817        H  0.34792671  0.17279094  0.41772039     0.13000
H818        H  0.34791980  0.17015600  0.46434179     0.12900
H819        H  0.45278777  0.18726190  0.41972838     0.26200
H820        H  0.45243460  0.17804375  0.46821929     0.26200
O821        O  0.72670622  0.16651282  0.54309099    -0.72900
O822        O  0.78344210  0.06796667  0.51904379    -0.73900
O823        O  0.73322688  0.07139100  0.54844788    -0.62500
O824        O  0.77765362  0.16187297  0.51294674    -0.70900
O825        O  0.80628411  0.17592462  0.54413027    -0.70500
O826        O  0.76119162  0.08665065  0.57989673    -0.61700
O827        O  0.81126362  0.08243255  0.55058271    -0.74200
O828        O  0.75572411  0.18184230  0.57388076    -0.73000
Cu829      Cu  0.75415304  0.11678030  0.52981610     1.04600
Cu830      Cu  0.78442326  0.13243031  0.56324234     1.04300
C831        C  0.73174362  0.18801508  0.56289151     0.93300
C832        C  0.80691203  0.06106715  0.53066162     0.92400
C833        C  0.74019438  0.06491081  0.56990015     0.84600
C834        C  0.80060651  0.17934675  0.52219146     0.90900
O835        O  0.80802187  0.30851760  0.63642116    -0.72900
O836        O  0.76142075  0.40912541  0.60780857    -0.73900
O837        O  0.81352907  0.40285611  0.63510635    -0.62500
O838        O  0.75603184  0.31236662  0.60754655    -0.70900
O839        O  0.73033618  0.31834157  0.64055342    -0.70500
O840        O  0.78522039  0.41596238  0.66627611    -0.61700
O841        O  0.73254632  0.41522187  0.63906425    -0.74200
O842        O  0.78172818  0.32057200  0.66874361    -0.73000
Cu843      Cu  0.78538758  0.35781675  0.62039187     1.04600
Cu844      Cu  0.75635833  0.36765794  0.65466562     1.04300
C845        C  0.80381039  0.30260412  0.65836420     0.93300
C846        C  0.74011598  0.42841764  0.61897899     0.92400
C847        C  0.80912363  0.42203326  0.65550056     0.84600
C848        C  0.73443799  0.30053759  0.61973332     0.90900
C849        C  0.35303851  0.19377689  0.34683708    -0.05700
C850        C  0.32771739  0.22329140  0.68437848     0.00200
C851        C  0.32915483  0.25129410  0.37279162    -0.08400
C852        C  0.35361048  0.24963998  0.38789509    -0.05700
C853        C  0.37678791  0.21876171  0.38322739     0.00200
C854        C  0.37653269  0.19014511  0.36244253    -0.08300
C855        C  0.39980901  0.15360797  0.35748983     0.62100
H856        H  0.35248992  0.17135959  0.33106517     0.12800
H857        H  0.35429660  0.27089846  0.40408694     0.12800
C858        C  0.29972486  0.28066522  0.71139881     0.62300
F859        F  0.39217772  0.12401447  0.33871376    -0.22800
F860        F  0.40386232  0.12808127  0.37721126    -0.20200
F861        F  0.42569469  0.17357005  0.35193667    -0.19800
F862        F  0.27980375  0.25848502  0.38431813    -0.19900
F863        F  0.29192771  0.30658186  0.69248542    -0.20200
F864        F  0.30454741  0.31013570  0.73085614    -0.22900
C865        C  0.35093871  0.06072894  0.38691730    -0.05700
C866        C  0.37090649  0.03051534  0.37541789     0.00200
C867        C  0.36622117  0.01864903  0.35101022    -0.08400
C868        C  0.34600007  0.03880717  0.67133779    -0.05700
C869        C  0.32543565  0.06868147  0.68245200     0.00200
C870        C  0.32636566  0.07847228  0.37550983    -0.08300
C871        C  0.30403462  0.10549299  0.39037579     0.62100
H872        H  0.35466464  0.07017773  0.40540575     0.12800
H873        H  0.34375527  0.03057056  0.65254199     0.12800
C874        C  0.38346843  0.48236189  0.33666760     0.62300
F875        F  0.31110023  0.10706813  0.41422821    -0.22800
F876        F  0.27727345  0.08486618  0.38799565    -0.20200
F877        F  0.30087425  0.14702967  0.71418519    -0.19800
F878        F  0.40268929  0.45821423  0.35035595    -0.19900
F879        F  0.39853705  0.50078316  0.31843820    -0.20200
F880        F  0.35955918  0.44455976  0.66379305    -0.22900
C881        C  0.32621940  0.49773845  0.50991140    -0.05700
C882        C  0.33413483  0.46068179  0.52364022     0.00200
C883        C  0.36360234  0.44538225  0.52386758    -0.08400
C884        C  0.38321563  0.46480359  0.50853303    -0.05700
C885        C  0.37490687  0.49987540  0.49375986     0.00200
C886        C  0.34646194  0.51896924  0.49567873    -0.08300
C887        C  0.33640212  0.56116234  0.48316553     0.62100
H888        H  0.30391412  0.51016097  0.51023006     0.12800
H889        H  0.40516170  0.45118225  0.50711161     0.12800
C890        C  0.37436949  0.40722912  0.53919131     0.62300
F891        F  0.32425071  0.59238645  0.49950201    -0.22800
F892        F  0.31553049  0.54917316  0.46638699    -0.20200
F893        F  0.35777136  0.07978009  0.47178778    -0.19800
F894        F  0.35863150  0.36813993  0.53431688    -0.19900
F895        F  0.37149174  0.42077953  0.56279740    -0.20200
F896        F  0.40333220  0.39619733  0.53528089    -0.22900
C897        C  0.35919932  0.27015921  0.48461243    -0.05700
C898        C  0.37380706  0.23568347  0.49655058     0.00200
C899        C  0.36386792  0.22330328  0.51884667    -0.08400
C900        C  0.34044832  0.24835577  0.52921850    -0.05700
C901        C  0.32589973  0.28333034  0.51731725     0.00200
C902        C  0.33485841  0.29335151  0.49412592    -0.08300
C903        C  0.31978791  0.32917433  0.47945590     0.62100
H904        H  0.36718965  0.27859284  0.46743610     0.12800
H905        H  0.33328827  0.24079883  0.54676211     0.12800
C906        C  0.37730510  0.18296653  0.53107145     0.62300
F907        F  0.33278216  0.33312617  0.45768275    -0.22800
F908        F  0.32081115  0.37152572  0.49123397    -0.20200
F909        F  0.29121490  0.31720730  0.47522083    -0.19800
F910        F  0.40627643  0.19064485  0.53604163    -0.19900
F911        F  0.37501381  0.14391912  0.51645354    -0.20200
F912        F  0.36356043  0.17529897  0.55212814    -0.22900
C913        C  0.57378640  0.49991107  0.50889760    -0.05700
C914        C  0.56685990  0.47188436  0.52743998     0.00200
C915        C  0.53698974  0.46384775  0.53204030    -0.08400
C916        C  0.51596824  0.47784088  0.51563639    -0.05700
C917        C  0.52314343  0.50264249  0.49598289     0.00200
C918        C  0.55227118  0.51750474  0.49383848    -0.08300
C919        C  0.56200886  0.55117945  0.47601775     0.62100
H920        H  0.59635918  0.50780153  0.50594167     0.12800
H921        H  0.49373248  0.46708532  0.51734580     0.12800
C922        C  0.52689923  0.43847230  0.55325860     0.62300
F923        F  0.57652637  0.58662909  0.48780103    -0.22800
F924        F  0.53761915  0.07130929  0.46483685    -0.20200
F925        F  0.58086250  0.52942640  0.46008777    -0.19800
F926        F  0.53661651  0.46059745  0.57391324    -0.19900
F927        F  0.53734624  0.39392775  0.55188043    -0.20200
F928        F  0.49690727  0.43688250  0.55447264    -0.22900
C929        C  0.55840385  0.25678714  0.53323164    -0.05700
C930        C  0.57043047  0.29408434  0.52215986     0.00200
C931        C  0.56120846  0.30407722  0.49889601    -0.08400
C932        C  0.53942592  0.27753099  0.48808643    -0.05700
C933        C  0.52739170  0.24043992  0.49903809     0.00200
C934        C  0.53729128  0.22894897  0.52175082    -0.08300
C935        C  0.52595964  0.18730422  0.53349963     0.62100
H936        H  0.56581779  0.24948409  0.55088438     0.12800
H937        H  0.53141431  0.28547991  0.47068532     0.12800
C938        C  0.57346317  0.34316789  0.48545081     0.62300
F939        F  0.54131891  0.17866017  0.55397961    -0.22800
F940        F  0.52851636  0.14912289  0.51822851    -0.20200
F941        F  0.49710443  0.19408202  0.53933442    -0.19800
F942        F  0.60234995  0.33436370  0.48028833    -0.19900
F943        F  0.57084587  0.38357108  0.49885453    -0.20200
F944        F  0.55896564  0.34914101  0.46425355    -0.22900
C945        C  0.51731564  0.19054198  0.36178472    -0.05700
C946        C  0.52522121  0.21655059  0.38223710     0.00200
C947        C  0.55251127  0.23839988  0.38304600    -0.08400
C948        C  0.57258286  0.22698525  0.36507683    -0.05700
C949        C  0.56510323  0.19736014  0.67755842     0.00200
C950        C  0.53579212  0.18323575  0.67421868    -0.08300
C951        C  0.52567798  0.15452253  0.65268264     0.62100
H952        H  0.49605691  0.17514454  0.36109804     0.12800
H953        H  0.59438112  0.24036647  0.36668769     0.12800
C954        C  0.56168986  0.27365403  0.40209838     0.62300
F955        F  0.49590654  0.14839834  0.65256380    -0.22800
F956        F  0.53879284  0.11169812  0.65246563    -0.20200
F957        F  0.53247800  0.17615055  0.63228472    -0.19800
F958        F  0.58440526  0.25608502  0.41517607    -0.19900
F959        F  0.53941074  0.28696394  0.41721985    -0.20200
F960        F  0.57110179  0.31237870  0.39150131    -0.22900
C961        C  0.55875097  0.00766108  0.67593578    -0.05700
C962        C  0.57882340  0.03805315  0.68680915     0.00200
C963        C  0.57193366  0.05356858  0.37779642    -0.08400
C964        C  0.54629688  0.04068151  0.38867531    -0.05700
C965        C  0.52670984  0.00988876  0.37775989     0.00200
C966        C  0.53424531  0.99254768  0.68786723    -0.08300
C967        C  0.51522809  0.95758682  0.67481325     0.62100
H968        H  0.56210073  0.99573426  0.65771740     0.12800
H969        H  0.54108122  0.05492723  0.40616920     0.12800
C970        C  0.59225566  0.08550991  0.39175230     0.62300
F971        F  0.53244142  0.92202867  0.66555662    -0.22800
F972        F  0.50463823  0.97129004  0.32092199    -0.20200
F973        F  0.49485637  0.93886909  0.68913108    -0.19800
F974        F  0.59354228  0.12693446  0.38115987    -0.19900
F975        F  0.62275617  0.06530910  0.72486312    -0.20200
F976        F  0.58311899  0.09426896  0.41479301    -0.22900
C977        C  0.05084415  0.26489092  0.69877092    -0.05700
C978        C  0.02822647  0.28641910  0.36890852     0.00200
C979        C  0.02737269  0.33204527  0.36147363    -0.08400
C980        C  0.04974503  0.34652289  0.34713023    -0.05700
C981        C  0.07231288  0.32339278  0.67582674     0.00200
C982        C  0.07439199  0.27992071  0.68558171    -0.08300
C983        C  0.10113787  0.24966439  0.68187721     0.62100
H984        H  0.05177851  0.23152607  0.70629254     0.12800
H985        H  0.04904258  0.38136347  0.34131000     0.12800
C986        C  0.00416337  0.36756228  0.36850526     0.62300
F987        F  0.09756487  0.20692298  0.69085065    -0.22800
F988        F  0.12477732  0.26976809  0.69317225    -0.20200
F989        F  0.10677784  0.24374922  0.65795543    -0.19800
F990        F  0.98508944  0.35348562  0.38527536    -0.19900
F991        F  0.98848364  0.37887754  0.34862944    -0.20200
F992        F  0.01739448  0.40642345  0.37786512    -0.22900
C993        C  0.83204943  0.16157650  0.48871441    -0.05700
C994        C  0.82358888  0.19410221  0.50641545     0.00200
C995        C  0.83974321  0.23455345  0.51022782    -0.08400
C996        C  0.86398898  0.24110052  0.49573888    -0.05700
C997        C  0.87267160  0.20795067  0.47825208     0.00200
C998        C  0.85689791  0.16673947  0.47516802    -0.08300
C999        C  0.86485459  0.12757238  0.45762921     0.62100
H1000       H  0.81985891  0.13021106  0.48626547     0.12800
H1001       H  0.87614883  0.27248699  0.49766813     0.12800
C1002       C  0.83052121  0.27131917  0.52857412     0.62300
F1003       F  0.86208597  0.08664271  0.46827092    -0.22800
F1004       F  0.89304109  0.12968704  0.44959539    -0.20200
F1005       F  0.84591393  0.12713111  0.43856062    -0.19800
F1006       F  0.83255583  0.25479202  0.55100157    -0.19900
F1007       F  0.80209966  0.28462930  0.52422113    -0.20200
F1008       F  0.84775471  0.30962489  0.52803521    -0.22900
C1009       C  0.84358384  0.24439694  0.66207140    -0.05700
C1010       C  0.82659032  0.28020652  0.67256603     0.00200
C1011       C  0.83502128  0.29665366  0.36235668    -0.08400
C1012       C  0.86186415  0.28389989  0.37157799    -0.05700
C1013       C  0.87859556  0.24779239  0.36152163     0.00200
C1014       C  0.86824695  0.22654396  0.67372129    -0.08300
C1015       C  0.88316428  0.18318609  0.66386036     0.62100
H1016       H  0.83709041  0.23000480  0.64488410     0.12800
H1017       H  0.86932513  0.29982203  0.38815166     0.12800
C1018       C  0.81571883  0.32861273  0.37766985     0.62300
F1019       F  0.86770539  0.16334561  0.64505520    -0.22800
F1020       F  0.88544562  0.15164462  0.68124011    -0.20200
F1021       F  0.91058311  0.19263749  0.65594935    -0.19800
F1022       F  0.78929787  0.30819084  0.38110321    -0.19900
F1023       F  0.81136509  0.36961677  0.36720377    -0.20200
F1024       F  0.82774916  0.33845640  0.39980568    -0.22900
C1025       C  0.05055897  0.48568022  0.39006355    -0.05700
C1026       C  0.03122198  0.51732732  0.38021548     0.00200
C1027       C  0.03898307  0.53751882  0.35893423    -0.08400
C1028       C  0.06230647  0.52238125  0.67815483    -0.05700
C1029       C  0.08013662  0.48826991  0.68780510     0.00200
C1030       C  0.07604045  0.47042662  0.37875718    -0.08300
C1031       C  0.09545049  0.43603245  0.39100315     0.62100
H1032       H  0.04478339  0.47126596  0.40661927     0.12800
H1033       H  0.06762704  0.53475967  0.66098828     0.12800
C1034       C  0.02166830  0.58015822  0.67898481     0.62300
F1035       F  0.08528248  0.42623322  0.41309826    -0.22800
F1036       F  0.12304501  0.45347745  0.39406367    -0.20200
F1037       F  0.09676651  0.39530873  0.37773819    -0.19800
F1038       F  0.99885239  0.59743006  0.69253252    -0.19900
F1039       F  0.01236801  0.56432992  0.32624083    -0.20200
F1040       F  0.04091846  0.61532782  0.67620868    -0.22900
C1041       C  0.85879125  0.50371992  0.35844549    -0.05700
C1042       C  0.87983690  0.47284543  0.36689988     0.00200
C1043       C  0.87952959  0.42648289  0.35828955    -0.08400
C1044       C  0.85805748  0.41273798  0.34168555    -0.05700
C1045       C  0.83376576  0.44455534  0.66829378     0.00200
C1046       C  0.83343086  0.49082101  0.67673543    -0.08300
C1047       C  0.80876729  0.52281419  0.67022898     0.62100
H1048       H  0.85658341  0.54194881  0.69828185     0.12800
H1049       H  0.85702645  0.37718178  0.33546092     0.12800
C1050       C  0.89879499  0.38986526  0.36888062     0.62300
F1051       F  0.81336558  0.56716374  0.67894858    -0.22800
F1052       F  0.78305857  0.50800622  0.67948231    -0.20200
F1053       F  0.80613757  0.52331627  0.64588088    -0.19800
F1054       F  0.88923042  0.38222539  0.39141629    -0.19900
F1055       F  0.92749133  0.40221468  0.37020526    -0.20200
F1056       F  0.89796221  0.34936941  0.35535358    -0.22900
C1057       C  0.85841699  0.05501834  0.52039644    -0.05700
C1058       C  0.83124737  0.03410613  0.51955409     0.00200
C1059       C  0.82807412  0.99196254  0.50645546    -0.08400
C1060       C  0.85146717  0.97516568  0.49233903    -0.05700
C1061       C  0.87748421  0.99954142  0.49081906     0.00200
C1062       C  0.88174850  0.03872363  0.50638869    -0.08300
C1063       C  0.90983435  0.06580547  0.50734928     0.62100
H1064       H  0.86068553  0.08639972  0.53115313     0.12800
H1065       H  0.84899081  0.94424797  0.48124420     0.12800
C1066       C  0.80056626  0.96440548  0.50790148     0.62300
F1067       F  0.90689032  0.10648540  0.52069894    -0.22800
F1068       F  0.91820750  0.07666332  0.48494704    -0.20200
F1069       F  0.93158748  0.04054272  0.51770735    -0.19800
F1070       F  0.77755648  0.98710083  0.49760951    -0.19900
F1071       F  0.79432941  0.95797919  0.53136919    -0.20200
F1072       F  0.80351141  0.92173905  0.49641702    -0.22900
C1073       C  0.04208080  0.19776407  0.47636992    -0.05700
C1074       C  0.02387461  0.23302456  0.48516178     0.00200
C1075       C  0.02915745  0.25343033  0.50796148    -0.08400
C1076       C  0.05145624  0.23461411  0.52202876    -0.05700
C1077       C  0.06985996  0.19913392  0.51304507     0.00200
C1078       C  0.06590828  0.18203288  0.48920845    -0.08300
C1079       C  0.08613766  0.14689790  0.47693780     0.62100
H1080       H  0.03761865  0.18323730  0.45876949     0.12800
H1081       H  0.05512579  0.24815690  0.53992446     0.12800
C1082       C  0.01233601  0.29581510  0.51680312     0.62300
F1083       F  0.07725296  0.13518285  0.45405714    -0.22800
F1084       F  0.08696878  0.10738688  0.48924581    -0.20200
F1085       F  0.11372851  0.16449230  0.47547059    -0.19800
F1086       F  0.98316053  0.28655220  0.51859209    -0.19900
F1087       F  0.01571549  0.33025206  0.50117395    -0.20200
F1088       F  0.02208050  0.31171116  0.53884658    -0.22900
C1089       C  0.01721661  0.02625521  0.51440318    -0.05700
C1090       C  0.02429509  0.00154537  0.49343204     0.00200
C1091       C  0.05346790  0.98655978  0.48990548    -0.08400
C1092       C  0.07514237  0.00335348  0.50554749    -0.05700
C1093       C  0.06849251  0.03267896  0.52518223     0.00200
C1094       C  0.03861774  0.04169739  0.53063950    -0.08300
C1095       C  0.02881535  0.07047316  0.55230949     0.62100
H1096       H  0.99478917  0.03684144  0.51695518     0.12800
H1097       H  0.09769453  0.99503848  0.50172718     0.12800
C1098       C  0.06311071  0.95500019  0.46937843     0.62300
F1099       F  0.03844451  0.11476208  0.55096863    -0.22800
F1100       F  0.03955475  0.05159168  0.57261056    -0.20200
F1101       F  0.99885556  0.07261414  0.55420470    -0.19800
F1102       F  0.08036656  0.47478162  0.45620890    -0.19900
F1103       F  0.04038086  0.43199093  0.45879344    -0.20200
F1104       F  0.07967934  0.41622809  0.48052998    -0.22900
O1105       O  0.08866903  0.07856126  0.89227687    -0.72900
O1106       O  0.13740069  0.18372218  0.91302945    -0.73900
O1107       O  0.08649668  0.17261147  0.88397029    -0.62500
O1108       O  0.14172810  0.08781976  0.92000919    -0.70900
O1109       O  0.16668371  0.07696511  0.88690208    -0.70500
O1110       O  0.11588162  0.16429353  0.85337742    -0.61700
O1111       O  0.16653970  0.17448222  0.88215129    -0.74200
O1112       O  0.11384190  0.06990417  0.85928568    -0.73000
Cu1113     Cu  0.11283273  0.13107316  0.90354306     1.04600
Cu1114     Cu  0.14183363  0.12092904  0.86944699     1.04300
C1115       C  0.09142615  0.06078198  0.87147374     0.93300
C1116       C  0.15929364  0.19620062  0.90146164     0.92400
C1117       C  0.09214955  0.17932790  0.86224243     0.84600
C1118       C  0.16300607  0.06871420  0.90858201     0.90900
N1119       N  0.94880515  0.99003474  0.80055048    -0.36600
N1120       N  0.90604180  0.49192500  0.76150876    -0.57100
N1121       N  0.94915475  0.51952470  0.72719448    -0.36600
N1122       N  0.99189702  0.52013642  0.76578334    -0.57100
C1123       C  0.92598134  0.97173100  0.81113720     0.27000
C1124       C  0.97287485  0.97980588  0.81322114     0.27000
C1125       C  0.92836509  0.50253999  0.71227684     0.27000
C1126       C  0.97457402  0.51892230  0.71518475     0.27000
C1127       C  0.88792839  0.98722165  0.78165080     0.35600
C1128       C  0.88904210  0.49575381  0.74204544     0.35600
C1129       C  0.00644641  0.02134207  0.78881829     0.35600
C1130       C  0.00545643  0.54325309  0.74919450     0.35600
C1131       C  0.93543881  0.94854997  0.83062153    -0.21800
C1132       C  0.96527990  0.95333148  0.83183582    -0.21800
C1133       C  0.94029250  0.49452375  0.68999302    -0.21800
C1134       C  0.96957488  0.50320618  0.69204344    -0.21800
C1135       C  0.85950668  0.99248840  0.77380339    -0.22900
C1136       C  0.86013028  0.49877392  0.74860567    -0.22900
C1137       C  0.02936435  0.05040611  0.78557230    -0.22900
C1138       C  0.02932080  0.56556394  0.75911211    -0.22900
C1139       C  0.89694142  0.98263821  0.80559549    -0.18200
C1140       C  0.00041999  0.99910770  0.80976551    -0.18200
C1141       C  0.00194320  0.53241454  0.72483899    -0.19000
C1142       C  0.89914543  0.49334368  0.71838274    -0.18200
H1143       H  0.92206067  0.93201600  0.84321712     0.14700
H1144       H  0.97948010  0.94097296  0.84553990     0.14700
H1145       H  0.92934696  0.48148720  0.67412747     0.14700
H1146       H  0.98527509  0.49815130  0.67805020     0.14700
H1147       H  0.83994672  0.99553595  0.78418210     0.13000
H1148       H  0.84125308  0.50127294  0.73723318     0.12900
H1149       H  0.04518145  0.06215572  0.79859173     0.13000
H1150       H  0.04551152  0.58426120  0.74992002     0.12900
H1151       H  0.94696334  0.01481194  0.78798977     0.26200
H1152       H  0.94597300  0.53236559  0.74443082     0.26200
N1153       N  0.94796058  0.23780655  0.79347293    -0.36600
N1154       N  0.99281807  0.26183297  0.76078251    -0.57100
N1155       N  0.95400486  0.24370525  0.72010838    -0.36600
N1156       N  0.90863616  0.22116367  0.75313860    -0.57100
C1157       C  0.97194125  0.23194690  0.80712145     0.27000
C1158       C  0.92612143  0.21552783  0.80359161     0.27000
C1159       C  0.97654946  0.26227006  0.70892498     0.27000
C1160       C  0.93072433  0.24462725  0.70527431     0.27000
C1161       C  0.00737627  0.26874692  0.78147852     0.35600
C1162       C  0.01005436  0.27709667  0.74374531     0.35600
C1163       C  0.88966617  0.21788330  0.77106674     0.35600
C1164       C  0.89259429  0.21897381  0.73301706     0.35600
C1165       C  0.96503442  0.20616361  0.82619043    -0.21800
C1166       C  0.93600357  0.19639116  0.82412027    -0.21800
C1167       C  0.96801140  0.27190364  0.68610539    -0.21800
C1168       C  0.93899341  0.26253376  0.68416452    -0.21800
C1169       C  0.03364379  0.28944354  0.77765942    -0.22900
C1170       C  0.03529433  0.29499417  0.75383040    -0.22900
C1171       C  0.86162728  0.21405972  0.76232463    -0.22900
C1172       C  0.86365329  0.21187788  0.73836536    -0.22900
C1173       C  0.99982399  0.24948561  0.80295529    -0.18200
C1174       C  0.89736341  0.21242773  0.79495317    -0.18200
C1175       C  0.90175259  0.23298403  0.71061198    -0.18200
C1176       C  0.00363772  0.27558088  0.71917940    -0.18200
H1177       H  0.97937233  0.19560984  0.84023033     0.14700
H1178       H  0.92367704  0.17669030  0.83610601     0.14700
H1179       H  0.97978152  0.28737550  0.00597142     0.14700
H1180       H  0.92468243  0.26757132  0.00256324     0.14700
H1181       H  0.05030033  0.29818036  0.79064057     0.13000
H1182       H  0.05329292  0.30999511  0.74495365     0.12900
H1183       H  0.84166353  0.21184908  0.77209942     0.13000
H1184       H  0.84536390  0.20897419  0.72627221     0.12900
H1185       H  0.94588727  0.25840680  0.77915322     0.26200
H1186       H  0.95468672  0.23077985  0.73706854     0.26200
O1187       O  0.09502190  0.45494584  0.98405064    -0.72900
O1188       O  0.14008448  0.35787877  0.94613320    -0.73900
O1189       O  0.09089535  0.36097135  0.97679992    -0.62500
O1190       O  0.14392179  0.45523130  0.95318017    -0.70900
O1191       O  0.17400411  0.44518022  0.98344035    -0.70500
O1192       O  0.12105616  0.34880203  0.00674695    -0.61700
O1193       O  0.17095110  0.34851851  0.97585873    -0.74200
O1194       O  0.12469792  0.44580384  0.68083765    -0.73000
Cu1195     Cu  0.11670906  0.40769205  0.96387379     1.04600
Cu1196     Cu  0.14885808  0.39643114  0.99607043     1.04300
C1197       C  0.10148073  0.46159155  0.00593481     0.93300
C1198       C  0.16225380  0.33752596  0.95489204     0.92400
C1199       C  0.09656294  0.34264745  0.99633843     0.84600
C1200       C  0.16757700  0.46425056  0.96420835     0.90900
C1201       C  0.67546084  0.20991577  0.94243607     0.86500
C1202       C  0.69238703  0.18378123  0.92298290    -0.53700
C1203       C  0.70919604  0.21007395  0.90957762     0.09500
C1204       C  0.70629746  0.26188680  0.91611384     0.20400
C1205       C  0.69811086  0.23884350  0.95637477    -0.54400
C1206       C  0.71407038  0.26628714  0.94269077     0.09600
C1207       C  0.65733294  0.24488131  0.92943841    -0.54000
C1208       C  0.67316412  0.27256973  0.91565529     0.10100
H1209       H  0.69248340  0.14680216  0.92082141     0.14700
H1210       H  0.71929155  0.28399453  0.90494084     0.00400
H1211       H  0.70055299  0.23840816  0.64203263     0.15000
H1212       H  0.63397226  0.24844987  0.93159650     0.14700
C1213       C  0.72337024  0.03167574  0.91887650     0.86500
C1214       C  0.74171673  0.99401713  0.92927477    -0.53700
C1215       C  0.72643279  0.46580452  0.94106889     0.09500
C1216       C  0.69336953  0.47759621  0.94307612     0.20400
C1217       C  0.69866861  0.00618947  0.90549669    -0.54400
C1218       C  0.68304499  0.47595680  0.91711146     0.09600
C1219       C  0.70914891  0.05660148  0.94005364    -0.54000
C1220       C  0.69251581  0.03005528  0.95338147     0.10100
H1221       H  0.76448651  0.49028720  0.92392401     0.14700
H1222       H  0.68129515  0.45476807  0.95451952     0.00400
H1223       H  0.69462896  0.00851451  0.88666092     0.15000
H1224       H  0.70996859  0.09342485  0.94307393     0.14700
O1225       O  0.66520200  0.17215569  0.97864150    -0.72900
O1226       O  0.62290017  0.07927234  0.01524977    -0.73900
O1227       O  0.67333262  0.07703306  0.98501176    -0.62500
O1228       O  0.61576516  0.17215373  0.00918790    -0.70900
O1229       O  0.58760110  0.15735761  0.97799991    -0.70500
O1230       O  0.64443503  0.05998977  0.95435367    -0.61700
O1231       O  0.59437479  0.06432408  0.98432563    -0.74200
O1232       O  0.63747553  0.15519289  0.94733229    -0.73000
Cu1233     Cu  0.64544403  0.12555522  0.99798989     1.04600
Cu1234     Cu  0.61516731  0.10864164  0.96484618     1.04300
C1235       C  0.65821148  0.17800790  0.95705878     0.93300
C1236       C  0.60010384  0.06083562  0.00628661     0.92400
C1237       C  0.66833671  0.05444643  0.96557521     0.84600
C1238       C  0.59137480  0.17642180  0.99855342     0.90900
O1239       O  0.64128623  0.42756312  0.91927285    -0.72900
O1240       O  0.58656823  0.33364323  0.88805750    -0.73900
O1241       O  0.63729075  0.33044131  0.91655443    -0.62500
O1242       O  0.58841784  0.43025454  0.89192654    -0.70900
O1243       O  0.61309468  0.42699809  0.85851923    -0.70500
O1244       O  0.66622987  0.32811715  0.88540774    -0.61700
O1245       O  0.61485767  0.33069801  0.85657786    -0.74200
O1246       O  0.66597211  0.42668443  0.88578854    -0.73000
Cu1247     Cu  0.61268594  0.38068574  0.90515974     1.04600
Cu1248     Cu  0.64116883  0.37825269  0.87052667     1.04300
C1249       C  0.66221156  0.44208316  0.90699876     0.93300
C1250       C  0.59189183  0.31875365  0.86683689     0.92400
C1251       C  0.65872042  0.31258079  0.90523428     0.84600
C1252       C  0.59118861  0.44179503  0.87069742     0.90900
O1253       O  0.23732827  0.43446064  0.88488507    -0.72900
O1254       O  0.28497663  0.33231257  0.85450337    -0.73900
O1255       O  0.23308973  0.33664067  0.88201707    -0.62500
O1256       O  0.28916761  0.42819307  0.85761996    -0.70900
O1257       O  0.31614863  0.42206545  0.88992207    -0.70500
O1258       O  0.25940734  0.33306740  0.91489411    -0.61700
O1259       O  0.31147176  0.32630570  0.88702303    -0.74200
O1260       O  0.26441210  0.42929236  0.91730510    -0.73000
Cu1261     Cu  0.26011482  0.38301794  0.86867414     1.04600
Cu1262     Cu  0.28865442  0.37754539  0.90347286     1.04300
C1263       C  0.24342293  0.44782257  0.90612291     0.93300
C1264       C  0.30671095  0.31514258  0.86524046     0.92400
C1265       C  0.23727595  0.32087965  0.90249868     0.84600
C1266       C  0.31231529  0.43760107  0.86941322     0.90900
C1267       C  0.22454108  0.48248012  0.91933392     0.86500
C1268       C  0.20793524  0.45906194  0.93819007    -0.53700
C1269       C  0.19038383  0.48711169  0.95160088     0.09500
C1270       C  0.19219945  0.03851063  0.94657881     0.20400
C1271       C  0.20165507  0.00753544  0.90652911    -0.54400
C1272       C  0.18433440  0.03732410  0.91988256     0.09600
C1273       C  0.24195077  0.02114809  0.93355852    -0.54000
C1274       C  0.22506794  0.05069339  0.94718268     0.10100
H1275       H  0.20810677  0.42201056  0.93945594     0.14700
H1276       H  0.17828974  0.06202258  0.95771238     0.00400
H1277       H  0.19949462  0.00305778  0.88744661     0.15000
H1278       H  0.26530918  0.02455840  0.93194983     0.14700
O1279       O  0.30979878  0.11070590  0.98310527    -0.72900
O1280       O  0.25917679  0.20242435  0.95033918    -0.73900
O1281       O  0.30725868  0.20587300  0.98228810    -0.62500
O1282       O  0.26195307  0.10586988  0.95076629    -0.70900
O1283       O  0.22914368  0.10814870  0.97924355    -0.70500
O1284       O  0.27866115  0.20497528  0.01354113    -0.61700
O1285       O  0.22916367  0.20605170  0.98088757    -0.74200
O1286       O  0.27775111  0.10993200  0.01195344    -0.73000
Cu1287     Cu  0.28533609  0.15643595  0.96551475     1.04600
Cu1288     Cu  0.25238363  0.15778319  0.99737374     1.04300
C1289       C  0.30244300  0.09777170  0.00346092     0.93300
C1290       C  0.23581285  0.21745767  0.96014369     0.92400
C1291       C  0.30274710  0.21530509  0.00417731     0.84600
C1292       C  0.23885442  0.09058680  0.95967627     0.90900
C1293       C  0.17801360  0.23240910  0.91341812     0.86500
C1294       C  0.16033780  0.26957716  0.92718898    -0.53700
C1295       C  0.17656607  0.29936632  0.94084697     0.09500
C1296       C  0.20973076  0.28914734  0.93928495     0.20400
C1297       C  0.19939626  0.25936540  0.89879283    -0.54400
C1298       C  0.21603151  0.28944280  0.91240179     0.09600
C1299       C  0.19670018  0.20963637  0.93188022    -0.54000
C1300       C  0.21350909  0.23840790  0.94524718     0.10100
H1301       H  0.13678238  0.27192104  0.92632770     0.14700
H1302       H  0.22325318  0.31304231  0.95035477     0.00400
H1303       H  0.20104723  0.25543401  0.87968494     0.15000
H1304       H  0.19763056  0.17268801  0.93351118     0.14700
N1305       N  0.44988652  0.00321640  0.72953193    -0.36600
N1306       N  0.49223663  0.50084009  0.76690674    -0.57100
N1307       N  0.44893132  0.51055861  0.80211609    -0.36600
N1308       N  0.40476506  0.51204151  0.76593516    -0.57100
C1309       C  0.47447770  0.01459962  0.71845753     0.27000
C1310       C  0.42706288  0.02136533  0.71780262     0.27000
C1311       C  0.47284942  0.52157620  0.81507522     0.27000
C1312       C  0.42544118  0.52462901  0.81468822     0.27000
C1313       C  0.50809306  0.98526062  0.74819670     0.35600
C1314       C  0.50769426  0.48904874  0.78609178     0.35600
C1315       C  0.39041567  0.00054913  0.74651066     0.35600
C1316       C  0.38882592  0.50102561  0.78474136     0.35600
C1317       C  0.46730146  0.03994728  0.69911109    -0.21800
C1318       C  0.43729430  0.04403701  0.69864427    -0.21800
C1319       C  0.46442395  0.54394594  0.83613964    -0.21800
C1320       C  0.43437466  0.54548258  0.83598256    -0.21800
C1321       C  0.53287814  0.96193758  0.75525166    -0.22900
C1322       C  0.53182010  0.46291999  0.77926043    -0.22900
C1323       C  0.36447613  0.98084490  0.75246178    -0.22900
C1324       C  0.36309241  0.48097876  0.77708349    -0.22900
C1325       C  0.50277824  0.00040219  0.72531877    -0.18200
C1326       C  0.39752025  0.01522473  0.72383353    -0.18200
C1327       C  0.39667542  0.51222764  0.80856352    -0.18200
C1328       C  0.50136374  0.50598982  0.80928726    -0.18200
H1329       H  0.48013209  0.05274561  0.01982892     0.14700
H1330       H  0.42259826  0.05844023  0.01846164     0.14700
H1331       H  0.47838584  0.55590591  0.85054489     0.14700
H1332       H  0.42065399  0.55878181  0.85021996     0.14700
H1333       H  0.54959140  0.94655600  0.74399160     0.13000
H1334       H  0.54854435  0.44899406  0.79049256     0.12900
H1335       H  0.34718888  0.96978713  0.74054032     0.13000
H1336       H  0.34580943  0.46863901  0.78779710     0.12900
H1337       H  0.44867230  0.98106280  0.74337957     0.26200
H1338       H  0.44832263  0.48782274  0.78740203     0.26200
N1339       N  0.45036725  0.21947424  0.73997908    -0.36600
N1340       N  0.49401675  0.21027088  0.77452944    -0.57100
N1341       N  0.45177662  0.20215254  0.81305866    -0.36600
N1342       N  0.40850427  0.20817756  0.77565786    -0.57100
C1343       C  0.47345618  0.23579300  0.72881062     0.27000
C1344       C  0.42632267  0.23662161  0.72979071     0.27000
C1345       C  0.47551818  0.22116344  0.82345308     0.27000
C1346       C  0.42819336  0.22130966  0.82393307     0.27000
C1347       C  0.51004462  0.20287320  0.75481051     0.35600
C1348       C  0.51009818  0.19601349  0.79282448     0.35600
C1349       C  0.39142110  0.20313356  0.75629551     0.35600
C1350       C  0.39291696  0.19509748  0.79412433     0.35600
C1351       C  0.46408937  0.26422071  0.71127886    -0.21800
C1352       C  0.43408035  0.26506840  0.71203314    -0.21800
C1353       C  0.46700810  0.25222421  0.84145907    -0.21800
C1354       C  0.43704444  0.25253582  0.84165439    -0.21800
C1355       C  0.53619688  0.18187917  0.76042677    -0.22900
C1356       C  0.53650493  0.17853975  0.78467112    -0.22900
C1357       C  0.36508697  0.18463880  0.76220415    -0.22900
C1358       C  0.36593497  0.17994659  0.78629240    -0.22900
C1359       C  0.50221808  0.22078564  0.73280503    -0.18200
C1360       C  0.39812785  0.22178469  0.73450116    -0.18200
C1361       C  0.39912339  0.21187691  0.81732011    -0.18200
C1362       C  0.50440985  0.21177910  0.81625689    -0.18200
H1363       H  0.47743062  0.28135490  0.69888277     0.14700
H1364       H  0.41963972  0.28264894  0.70018553     0.14700
H1365       H  0.48087579  0.27344679  0.85278769     0.14700
H1366       H  0.42336602  0.27400652  0.85315960     0.14700
H1367       H  0.55386352  0.17263798  0.74859388     0.13000
H1368       H  0.55469448  0.16736115  0.79528100     0.12900
H1369       H  0.34648431  0.17860526  0.75075262     0.13000
H1370       H  0.34785426  0.17084771  0.79713107     0.12900
H1371       H  0.45090402  0.19229308  0.75124937     0.26200
H1372       H  0.45174564  0.17656059  0.79954007     0.26200
O1373       O  0.72816827  0.16479772  0.87711937    -0.72900
O1374       O  0.78369963  0.06487700  0.85402638    -0.73900
O1375       O  0.73368284  0.06998126  0.88322851    -0.62500
O1376       O  0.77911669  0.15830491  0.84730924    -0.70900
O1377       O  0.80791664  0.17209689  0.87841886    -0.70500
O1378       O  0.76150454  0.08535080  0.91475147    -0.61700
O1379       O  0.81154229  0.07891216  0.88561670    -0.74200
O1380       O  0.75717805  0.18030352  0.90792131    -0.73000
Cu1381     Cu  0.75507133  0.11437281  0.86436828     1.04600
Cu1382     Cu  0.78535639  0.12994314  0.89781650     1.04300
C1383       C  0.73327383  0.18647590  0.89682368     0.93300
C1384       C  0.80698212  0.05749497  0.86574601     0.92400
C1385       C  0.74050547  0.06366858  0.90472890     0.84600
C1386       C  0.80234615  0.17504288  0.85643272     0.90900
O1387       O  0.80868959  0.30576786  0.96982611    -0.72900
O1388       O  0.76305738  0.40764282  0.94076798    -0.73900
O1389       O  0.81514910  0.39997756  0.96856420    -0.62500
O1390       O  0.75683733  0.31091946  0.94074222    -0.70900
O1391       O  0.73094541  0.31770284  0.97363231    -0.70500
O1392       O  0.78669605  0.41340520  0.99962164    -0.61700
O1393       O  0.73408121  0.41435436  0.97191864    -0.74200
O1394       O  0.78214824  0.31814183  0.00198153    -0.73000
Cu1395     Cu  0.78659276  0.35570625  0.95365169     1.04600
Cu1396     Cu  0.75738572  0.36612853  0.98778321     1.04300
C1397       C  0.80418596  0.29969563  0.99171816     0.93300
C1398       C  0.74159490  0.42707284  0.95170203     0.92400
C1399       C  0.81081057  0.41880837  0.98905306     0.84600
C1400       C  0.73503017  0.29970742  0.95286740     0.90900
C1401       C  0.35290448  0.19687493  0.67947309    -0.05700
C1402       C  0.32858516  0.22530837  0.01927207     0.00200
C1403       C  0.32650551  0.25195573  0.70519186    -0.08400
C1404       C  0.35091637  0.25311763  0.72039389    -0.05700
C1405       C  0.37529584  0.22449906  0.71598821     0.00200
C1406       C  0.37631525  0.19556913  0.69527238    -0.08300
C1407       C  0.40091804  0.16105144  0.69048272     0.62100
H1408       H  0.35331751  0.17427118  0.66375939     0.12800
H1409       H  0.35058793  0.27447458  0.73656076     0.12800
C1410       C  0.30320296  0.28438996  0.04720039     0.62300
F1411       F  0.39450605  0.13069782  0.67170684    -0.22800
F1412       F  0.40588677  0.13581855  0.71019701    -0.20200
F1413       F  0.42600334  0.18329640  0.68495199    -0.19800
F1414       F  0.27699442  0.25267864  0.71668699    -0.19900
F1415       F  0.29698287  0.31280994  0.02894072    -0.20200
F1416       F  0.30912499  0.31153836  0.06733455    -0.22900
C1417       C  0.35260525  0.06160248  0.71922409    -0.05700
C1418       C  0.37293131  0.03126704  0.70838429     0.00200
C1419       C  0.36841356  0.01723221  0.68423702    -0.08400
C1420       C  0.34289676  0.04019368  0.00646393    -0.05700
C1421       C  0.32375401  0.07182694  0.01792717     0.00200
C1422       C  0.32786781  0.07759668  0.70733873    -0.08300
C1423       C  0.30456745  0.10319882  0.72179150     0.62100
H1424       H  0.35596834  0.07198951  0.73764790     0.12800
H1425       H  0.33961766  0.03163529  0.98779286     0.12800
C1426       C  0.38043441  0.47518487  0.67189878     0.62300
F1427       F  0.31148567  0.10666815  0.74565311    -0.22800
F1428       F  0.27871285  0.07983362  0.71955091    -0.20200
F1429       F  0.30342999  0.15329363  0.04966097    -0.19800
F1430       F  0.39936036  0.45185444  0.68623661    -0.19900
F1431       F  0.39554223  0.48985369  0.65274005    -0.20200
F1432       F  0.36254618  0.44833914  0.99426789    -0.22900
C1433       C  0.32736133  0.50025508  0.84419719    -0.05700
C1434       C  0.33554179  0.46375426  0.85823559     0.00200
C1435       C  0.36511949  0.44903909  0.85855600    -0.08400
C1436       C  0.38466103  0.46875458  0.84324181    -0.05700
C1437       C  0.37601598  0.50276831  0.82792420     0.00200
C1438       C  0.34731186  0.52104448  0.82951131    -0.08300
C1439       C  0.33649235  0.56140767  0.81586095     0.62100
H1440       H  0.30493617  0.51211363  0.84433665     0.12800
H1441       H  0.40671304  0.45554555  0.84196887     0.12800
C1442       C  0.37593131  0.41034212  0.87349515     0.62300
F1443       F  0.32397471  0.59382852  0.83136099    -0.22800
F1444       F  0.31568044  0.54689080  0.79953674    -0.20200
F1445       F  0.35941660  0.07954610  0.80363803    -0.19800
F1446       F  0.36087760  0.37100918  0.86752034    -0.19900
F1447       F  0.37210919  0.42214031  0.89721002    -0.20200
F1448       F  0.40516655  0.40063239  0.87011342    -0.22900
C1449       C  0.36002444  0.27007664  0.81864998    -0.05700
C1450       C  0.37471526  0.23545083  0.83043900     0.00200
C1451       C  0.36560901  0.22445524  0.85327857    -0.08400
C1452       C  0.34279249  0.25061437  0.86396450    -0.05700
C1453       C  0.32797631  0.28523553  0.85197857     0.00200
C1454       C  0.33625163  0.29416952  0.82849045    -0.08300
C1455       C  0.32118159  0.33000029  0.81380841     0.62100
H1456       H  0.36753979  0.27805553  0.80126795     0.12800
H1457       H  0.33619494  0.24403510  0.88178440     0.12800
C1458       C  0.37904240  0.18446102  0.86585239     0.62300
F1459       F  0.33344154  0.33263675  0.79166650    -0.22800
F1460       F  0.32326421  0.37265480  0.82518195    -0.20200
F1461       F  0.29231109  0.31906009  0.81030133    -0.19800
F1462       F  0.40821511  0.19147068  0.87016364    -0.19900
F1463       F  0.37586724  0.14470227  0.85191337    -0.20200
F1464       F  0.36589989  0.17841585  0.88736250    -0.22900
C1465       C  0.57443861  0.49762668  0.84137683    -0.05700
C1466       C  0.56735603  0.46832047  0.85933460     0.00200
C1467       C  0.53745127  0.45959381  0.86350739    -0.08400
C1468       C  0.51654355  0.47512843  0.84743251    -0.05700
C1469       C  0.52388397  0.50131650  0.82835589     0.00200
C1470       C  0.55305895  0.51600652  0.82644775    -0.08300
C1471       C  0.56299500  0.55001086  0.80886717     0.62100
H1472       H  0.59703989  0.50569787  0.83869068     0.12800
H1473       H  0.49423410  0.46452297  0.84884621     0.12800
C1474       C  0.52720986  0.43176029  0.88381204     0.62300
F1475       F  0.57750250  0.58519211  0.82088330    -0.22800
F1476       F  0.54109113  0.07116375  0.79701088    -0.20200
F1477       F  0.58189339  0.52839623  0.79292619    -0.19800
F1478       F  0.53574549  0.45264119  0.90513010    -0.19900
F1479       F  0.53864816  0.38788273  0.88170588    -0.20200
F1480       F  0.49725578  0.42825313  0.88421270    -0.22900
C1481       C  0.55969640  0.25065936  0.86371258    -0.05700
C1482       C  0.57083573  0.28946902  0.85334889     0.00200
C1483       C  0.56117994  0.30047232  0.83031704    -0.08400
C1484       C  0.54007532  0.27321537  0.81899512    -0.05700
C1485       C  0.52852469  0.23518597  0.82942949     0.00200
C1486       C  0.53888364  0.22265298  0.85185408    -0.08300
C1487       C  0.52832317  0.17971723  0.86287520     0.62100
H1488       H  0.56745631  0.24242752  0.88113965     0.12800
H1489       H  0.53172782  0.28199642  0.80182126     0.12800
C1490       C  0.57158713  0.34220782  0.81796281     0.62300
F1491       F  0.54430337  0.16990897  0.88287861    -0.22800
F1492       F  0.53092135  0.14274314  0.84681624    -0.20200
F1493       F  0.49955074  0.18520199  0.86925040    -0.19800
F1494       F  0.60087276  0.33793755  0.81309534    -0.19900
F1495       F  0.56652809  0.38089183  0.83223552    -0.20200
F1496       F  0.55718786  0.34814167  0.79671759    -0.22900
C1497       C  0.51565543  0.19413833  0.69224022    -0.05700
C1498       C  0.52327032  0.21987938  0.71284247     0.00200
C1499       C  0.55110067  0.23985658  0.71442440    -0.08400
C1500       C  0.57179746  0.22696602  0.69714518    -0.05700
C1501       C  0.56659719  0.19789890  0.01197435     0.00200
C1502       C  0.53787370  0.18080678  0.00960177    -0.08300
C1503       C  0.52760316  0.15186919  0.98820594     0.62100
H1504       H  0.49400838  0.18019087  0.69103663     0.12800
H1505       H  0.59379475  0.23922973  0.69940939     0.12800
C1506       C  0.56018501  0.27410187  0.73399432     0.62300
F1507       F  0.49811430  0.14350044  0.98896777    -0.22800
F1508       F  0.54191928  0.11004409  0.98723311    -0.20200
F1509       F  0.53269495  0.17458429  0.96779891    -0.19800
F1510       F  0.58006853  0.25373167  0.74877922    -0.19900
F1511       F  0.53696469  0.29088982  0.74725733    -0.20200
F1512       F  0.57319097  0.31098686  0.72416400    -0.22900
C1513       C  0.55849975  0.00868750  0.01059502    -0.05700
C1514       C  0.57811217  0.03981358  0.02147651     0.00200
C1515       C  0.57442375  0.05333955  0.71079991    -0.08400
C1516       C  0.54904679  0.04042151  0.72203956    -0.05700
C1517       C  0.52876686  0.01082345  0.71105105     0.00200
C1518       C  0.53372711  0.99365555  0.02224095    -0.08300
C1519       C  0.51608321  0.95655711  0.00945851     0.62100
H1520       H  0.56255582  0.99580474  0.99262765     0.12800
H1521       H  0.54445618  0.05406855  0.73976273     0.12800
C1522       C  0.59523527  0.08487986  0.72455871     0.62300
F1523       F  0.53401412  0.91912747  0.00424608    -0.22800
F1524       F  0.50100218  0.97815366  0.65641247    -0.20200
F1525       F  0.49315565  0.94171292  0.02248898    -0.19800
F1526       F  0.59602075  0.12675240  0.71432589    -0.19900
F1527       F  0.62116364  0.06512872  0.06001735    -0.20200
F1528       F  0.58696150  0.09281794  0.74787365    -0.22900
C1529       C  0.04910353  0.26096555  0.02891896    -0.05700
C1530       C  0.02628458  0.29303534  0.70342053     0.00200
C1531       C  0.02469421  0.33723740  0.69416754    -0.08400
C1532       C  0.04730187  0.35070221  0.67974372    -0.05700
C1533       C  0.07254587  0.32161863  0.00880756     0.00200
C1534       C  0.07275774  0.27592127  0.01579424    -0.08300
C1535       C  0.09764996  0.24339636  0.00930864     0.62100
H1536       H  0.04878812  0.22618235  0.03467311     0.12800
H1537       H  0.04619315  0.38446559  0.67258490     0.12800
C1538       C  0.00025959  0.37196566  0.69905325     0.62300
F1539       F  0.09249910  0.19948465  0.01622420    -0.22800
F1540       F  0.12288158  0.25854759  0.02030691    -0.20200
F1541       F  0.10149071  0.24151920  0.98507378    -0.19800
F1542       F  0.98049734  0.35872838  0.71551353    -0.19900
F1543       F  0.98558509  0.37963460  0.67816267    -0.20200
F1544       F  0.01188292  0.41274910  0.70758830    -0.22900
C1545       C  0.83265431  0.15634215  0.82229430    -0.05700
C1546       C  0.82547403  0.18864585  0.84050506     0.00200
C1547       C  0.84274127  0.22786683  0.84444748    -0.08400
C1548       C  0.86662708  0.23358829  0.82954658    -0.05700
C1549       C  0.87403810  0.20071668  0.81157681     0.00200
C1550       C  0.85720714  0.16064024  0.80828788    -0.08300
C1551       C  0.86372880  0.12177733  0.79019562     0.62100
H1552       H  0.81966682  0.12581587  0.81974465     0.12800
H1553       H  0.87960356  0.26412664  0.83159582     0.12800
C1554       C  0.83533471  0.26413981  0.86356332     0.62300
F1555       F  0.86105565  0.08062531  0.80070963    -0.22800
F1556       F  0.89144835  0.12324175  0.78111263    -0.20200
F1557       F  0.84377462  0.12263661  0.77183456    -0.19800
F1558       F  0.83920996  0.24659123  0.88562272    -0.19900
F1559       F  0.80673286  0.27826053  0.86097421    -0.20200
F1560       F  0.85274814  0.30213571  0.86238926    -0.22900
C1561       C  0.84370057  0.24074207  0.99568289    -0.05700
C1562       C  0.82668815  0.27674758  0.00604728     0.00200
C1563       C  0.83444232  0.29868891  0.69539510    -0.08400
C1564       C  0.86112594  0.28571069  0.70486947    -0.05700
C1565       C  0.87777656  0.24933426  0.69497930     0.00200
C1566       C  0.86822605  0.22280755  0.00754091    -0.08300
C1567       C  0.88291959  0.17885991  0.99822419     0.62100
H1568       H  0.83728176  0.22617977  0.97851405     0.12800
H1569       H  0.86856297  0.30187793  0.72140888     0.12800
C1570       C  0.81512791  0.33115105  0.71042363     0.62300
F1571       F  0.86797722  0.15925821  0.97908042    -0.22800
F1572       F  0.88398032  0.14758711  0.01579830    -0.20200
F1573       F  0.91083935  0.18724950  0.99109024    -0.19800
F1574       F  0.78851128  0.31126516  0.71374294    -0.19900
F1575       F  0.81116479  0.37198788  0.69974462    -0.20200
F1576       F  0.82694981  0.34118032  0.73261196    -0.22900
C1577       C  0.04803006  0.48912219  0.72153711    -0.05700
C1578       C  0.02939293  0.52150605  0.71149648     0.00200
C1579       C  0.03758459  0.54061554  0.69002111    -0.08400
C1580       C  0.06122855  0.51882154  0.01262715    -0.05700
C1581       C  0.08015499  0.48580100  0.02199177     0.00200
C1582       C  0.07363462  0.47315248  0.71064292    -0.08300
C1583       C  0.09260578  0.43907217  0.72350210     0.62100
H1584       H  0.04174964  0.47515600  0.73808174     0.12800
H1585       H  0.06540676  0.53086757  0.99517695     0.12800
C1586       C  0.02066745  0.57687426  0.01520939     0.62300
F1587       F  0.08174067  0.42990457  0.74546856    -0.22800
F1588       F  0.12011821  0.45655704  0.72697843    -0.20200
F1589       F  0.09428718  0.39802129  0.71059059    -0.19800
F1590       F  0.99960069  0.59515114  0.03028364    -0.19900
F1591       F  0.01103959  0.56592698  0.65695850    -0.20200
F1592       F  0.04005602  0.61122725  0.01106995    -0.22900
C1593       C  0.85645615  0.50667469  0.69153237    -0.05700
C1594       C  0.87835222  0.47671555  0.69942767     0.00200
C1595       C  0.87857809  0.43032484  0.69084331    -0.08400
C1596       C  0.85708798  0.41588689  0.67441301    -0.05700
C1597       C  0.83557344  0.44007347  0.00225682     0.00200
C1598       C  0.83579435  0.48621410  0.01081703    -0.08300
C1599       C  0.81282935  0.51976361  0.00272156     0.62100
H1600       H  0.85842462  0.53570852  0.03377747     0.12800
H1601       H  0.85673981  0.38046964  0.66787821     0.12800
C1602       C  0.89933484  0.39484555  0.70074351     0.62300
F1603       F  0.81776644  0.56374917  0.01181673    -0.22800
F1604       F  0.78573426  0.50670724  0.01000606    -0.20200
F1605       F  0.81295337  0.52036229  0.97829456    -0.19800
F1606       F  0.89362413  0.39040614  0.72446312    -0.19900
F1607       F  0.92787056  0.40691227  0.69834714    -0.20200
F1608       F  0.89644244  0.35263971  0.68908788    -0.22900
C1609       C  0.85823017  0.05034025  0.85545318    -0.05700
C1610       C  0.83093255  0.02995923  0.85467852     0.00200
C1611       C  0.82709243  0.98846486  0.84118257    -0.08400
C1612       C  0.85035705  0.97101895  0.82716392    -0.05700
C1613       C  0.87650799  0.99500735  0.82550858     0.00200
C1614       C  0.88109201  0.03436545  0.84091668    -0.08300
C1615       C  0.90890752  0.06214053  0.84114081     0.62100
H1616       H  0.86082700  0.08145896  0.86636550     0.12800
H1617       H  0.84753614  0.94025283  0.81601308     0.12800
C1618       C  0.79868514  0.96292913  0.84157430     0.62300
F1619       F  0.90620792  0.10252411  0.85478086    -0.22800
F1620       F  0.91597420  0.07360549  0.81853251    -0.20200
F1621       F  0.93146596  0.03739715  0.85067582    -0.19800
F1622       F  0.77720839  0.98694492  0.83003839    -0.19900
F1623       F  0.79047542  0.95769364  0.86473672    -0.20200
F1624       F  0.80114536  0.91982896  0.83050321    -0.22900
C1625       C  0.04193495  0.19980631  0.80991128    -0.05700
C1626       C  0.02433944  0.23582214  0.81868801     0.00200
C1627       C  0.03074780  0.25718067  0.84104557    -0.08400
C1628       C  0.05302972  0.23802662  0.85506141    -0.05700
C1629       C  0.07037441  0.20091893  0.84637982     0.00200
C1630       C  0.06560671  0.18316811  0.82273593    -0.08300
C1631       C  0.08475352  0.14625864  0.81071900     0.62100
H1632       H  0.03691351  0.18502381  0.79246590     0.12800
H1633       H  0.05735560  0.25232840  0.87271496     0.12800
C1634       C  0.01483411  0.30061421  0.84945752     0.62300
F1635       F  0.07513461  0.13389494  0.78810957    -0.22800
F1636       F  0.08489329  0.10748948  0.82363447    -0.20200
F1637       F  0.11271711  0.16206992  0.80865181    -0.19800
F1638       F  0.98574646  0.29192712  0.85253954    -0.19900
F1639       F  0.01750891  0.33341437  0.83281102    -0.20200
F1640       F  0.02603959  0.31831459  0.87068829    -0.22900
C1641       C  0.01567241  0.02726341  0.84973543    -0.05700
C1642       C  0.02261665  0.00093697  0.82923434     0.00200
C1643       C  0.05172172  0.98553685  0.82590226    -0.08400
C1644       C  0.07351749  0.00323247  0.84116964    -0.05700
C1645       C  0.06706605  0.03387720  0.86033345     0.00200
C1646       C  0.03721402  0.04368113  0.86564798    -0.08300
C1647       C  0.02760901  0.07381783  0.88690769     0.62100
H1648       H  0.99326026  0.03806813  0.85213867     0.12800
H1649       H  0.09601810  0.99439573  0.83743965     0.12800
C1650       C  0.06111843  0.95253525  0.80586747     0.62300
F1651       F  0.03796886  0.11759122  0.88515162    -0.22800
F1652       F  0.03782298  0.05544175  0.90750760    -0.20200
F1653       F  0.99765265  0.07723907  0.88855466    -0.19800
F1654       F  0.07982889  0.47466513  0.78891795    -0.19900
F1655       F  0.03746123  0.43777225  0.79100254    -0.20200
F1656       F  0.07479970  0.41789237  0.81395786    -0.22900
O1657       O  0.08954217  0.57910465  0.22590247    -0.72900
O1658       O  0.13681729  0.68547595  0.24633220    -0.73900
O1659       O  0.08613233  0.67231673  0.21726986    -0.62500
O1660       O  0.14222544  0.58958266  0.25342849    -0.70900
O1661       O  0.16726831  0.57938210  0.22031419    -0.70500
O1662       O  0.11582872  0.66513196  0.18683121    -0.61700
O1663       O  0.16623549  0.67675238  0.21558889    -0.74200
O1664       O  0.11479632  0.57123441  0.19292053    -0.73000
Cu1665     Cu  0.11296417  0.63209253  0.23698249     1.04600
Cu1666     Cu  0.14215921  0.62272422  0.20294114     1.04300
C1667       C  0.09246883  0.56165384  0.20508125     0.93300
C1668       C  0.15865539  0.69833589  0.23483672     0.92400
C1669       C  0.09172288  0.67880320  0.19551262     0.84600
C1670       C  0.16346265  0.57062391  0.24189490     0.90900
N1671       N  0.94951804  0.49252698  0.13475791    -0.36600
N1672       N  0.90609272  0.99267831  0.09654483    -0.57100
N1673       N  0.94967343  0.01683836  0.06143896    -0.36600
N1674       N  0.99137461  0.02149680  0.10014465    -0.57100
C1675       C  0.92706416  0.47451221  0.14597537     0.27000
C1676       C  0.97392281  0.48307434  0.14714488     0.27000
C1677       C  0.92920065  0.99664340  0.04735841     0.27000
C1678       C  0.97541098  0.01288753  0.04991608     0.27000
C1679       C  0.88857159  0.48721838  0.11648726     0.35600
C1680       C  0.88935024  0.99639590  0.07693739     0.35600
C1681       C  0.00646269  0.52492472  0.12200126     0.35600
C1682       C  0.00532537  0.04271411  0.08308691     0.35600
C1683       C  0.93709225  0.45234428  0.16560132    -0.21800
C1684       C  0.96691432  0.45735958  0.16622058    -0.21800
C1685       C  0.94180501  0.98145302  0.02616273    -0.21800
C1686       C  0.97102657  0.99114160  0.02791501    -0.21800
C1687       C  0.86002306  0.49059949  0.10864413    -0.22900
C1688       C  0.86042942  0.00086618  0.08327149    -0.22900
C1689       C  0.02874528  0.55498376  0.11841668    -0.22900
C1690       C  0.02842362  0.06724941  0.09274853    -0.22900
C1691       C  0.89782703  0.48413524  0.14052380    -0.18200
C1692       C  0.00122999  0.50264406  0.14307229    -0.18200
C1693       C  0.00246671  0.02885603  0.05907578    -0.19000
C1694       C  0.89960048  0.99097767  0.05339742    -0.18200
H1695       H  0.92412267  0.43620176  0.17861112     0.14700
H1696       H  0.98148708  0.44569451  0.17984606     0.14700
H1697       H  0.93124707  0.96387623  0.01126438     0.14700
H1698       H  0.98715800  0.98272474  0.01457170     0.14700
H1699       H  0.84047100  0.49292364  0.11905466     0.13000
H1700       H  0.84180215  0.00342220  0.07160756     0.12900
H1701       H  0.04430304  0.56796362  0.13134376     0.13000
H1702       H  0.04472396  0.08519372  0.08328380     0.12900
H1703       H  0.94730408  0.51656314  0.12186570     0.26200
H1704       H  0.94594805  0.03422304  0.07763881     0.26200
N1705       N  0.94717030  0.73111753  0.12454344    -0.36600
N1706       N  0.99295919  0.75466896  0.09246018    -0.57100
N1707       N  0.95518235  0.73626279  0.05120223    -0.36600
N1708       N  0.90932472  0.71265191  0.08377922    -0.57100
C1709       C  0.97079883  0.72546535  0.13863321     0.27000
C1710       C  0.92491208  0.70975481  0.13464915     0.27000
C1711       C  0.97743694  0.75707890  0.04069716     0.27000
C1712       C  0.93175690  0.73886409  0.03656471     0.27000
C1713       C  0.00722796  0.76111257  0.11332516     0.35600
C1714       C  0.01099582  0.76860179  0.07561817     0.35600
C1715       C  0.88970798  0.70853733  0.10119707     0.35600
C1716       C  0.89433722  0.70767864  0.06318141     0.35600
C1717       C  0.96328225  0.70047551  0.15783426    -0.21800
C1718       C  0.93419372  0.69144231  0.15554303    -0.21800
C1719       C  0.96852657  0.77043768  0.01856515    -0.21800
C1720       C  0.93961359  0.76031590  0.01630981    -0.21800
C1721       C  0.03406337  0.78029964  0.10976296    -0.22900
C1722       C  0.03647353  0.78503466  0.08594474    -0.22900
C1723       C  0.86236405  0.70125000  0.09160402    -0.22900
C1724       C  0.86565669  0.69722681  0.06775633    -0.22900
C1725       C  0.99887379  0.74262954  0.13482665    -0.18200
C1726       C  0.89639011  0.70603848  0.12551214    -0.18200
C1727       C  0.90307325  0.72484100  0.04133233    -0.18200
C1728       C  0.00474973  0.76851857  0.05108128    -0.18200
H1729       H  0.97722750  0.69010989  0.17216495     0.14700
H1730       H  0.92144110  0.67259439  0.16758188     0.14700
H1731       H  0.98105382  0.78533276  0.33913687     0.14700
H1732       H  0.92558018  0.76780088  0.33527629     0.14700
H1733       H  0.05062512  0.78844368  0.12292206     0.13000
H1734       H  0.05502371  0.79883784  0.07725487     0.12900
H1735       H  0.84198163  0.69858348  0.10071869     0.13000
H1736       H  0.84806123  0.69232063  0.05512220     0.12900
H1737       H  0.94559208  0.75098461  0.10997335     0.26200
H1738       H  0.95621995  0.72039404  0.06732577     0.26200
O1739       O  0.09527765  0.95753566  0.31777774    -0.72900
O1740       O  0.13959002  0.85955299  0.27998867    -0.73900
O1741       O  0.09039416  0.86332316  0.31060135    -0.62500
O1742       O  0.14392101  0.95689039  0.28697709    -0.70900
O1743       O  0.17390422  0.94670181  0.31729326    -0.70500
O1744       O  0.12055539  0.85073687  0.34046699    -0.61700
O1745       O  0.17046573  0.85002817  0.30968971    -0.74200
O1746       O  0.12610168  0.94435295  0.01553274    -0.73000
Cu1747     Cu  0.11650487  0.90975746  0.29768300     1.04600
Cu1748     Cu  0.14859263  0.89819974  0.32989774     1.04300
C1749       C  0.10188767  0.96450740  0.33960450     0.93300
C1750       C  0.16169882  0.83902852  0.28874455     0.92400
C1751       C  0.09608846  0.84451868  0.33000689     0.84600
C1752       C  0.16753307  0.96584638  0.29807017     0.90900
C1753       C  0.67501994  0.71274168  0.27576134     0.86500
C1754       C  0.69190902  0.68663194  0.25627438    -0.53700
C1755       C  0.70867304  0.71281777  0.24277811     0.09500
C1756       C  0.70590069  0.76478287  0.24947396     0.20400
C1757       C  0.69773030  0.74163103  0.28973680    -0.54400
C1758       C  0.71370963  0.76922955  0.27611055     0.09600
C1759       C  0.65691761  0.74792617  0.26281956    -0.54000
C1760       C  0.67275396  0.77577199  0.24909463     0.10100
H1761       H  0.69204449  0.64960792  0.25419962     0.14700
H1762       H  0.71890276  0.78690488  0.23831834     0.00400
H1763       H  0.70213984  0.73487864  0.97483885     0.15000
H1764       H  0.63358033  0.75166290  0.26507285     0.14700
C1765       C  0.72257593  0.53405488  0.25256660     0.86500
C1766       C  0.74087272  0.49596488  0.26255431    -0.53700
C1767       C  0.72578600  0.96993138  0.27465689     0.09500
C1768       C  0.69291850  0.98185008  0.27694370     0.20400
C1769       C  0.69746351  0.50913826  0.23935841    -0.54400
C1770       C  0.68248204  0.98105418  0.25109700     0.09600
C1771       C  0.70883217  0.55886178  0.27397378    -0.54000
C1772       C  0.69223338  0.53229725  0.28733474     0.10100
H1773       H  0.76392653  0.99457140  0.25769383     0.14700
H1774       H  0.68089848  0.95871091  0.28826200     0.00400
H1775       H  0.69316990  0.51173477  0.22057428     0.15000
H1776       H  0.70960922  0.59573515  0.27692669     0.14700
O1777       O  0.66444279  0.67478227  0.31193975    -0.72900
O1778       O  0.62185858  0.58128202  0.34803668    -0.73900
O1779       O  0.67271274  0.57971626  0.31854946    -0.62500
O1780       O  0.61456042  0.67409452  0.34177342    -0.70900
O1781       O  0.58674573  0.65914146  0.31040237    -0.70500
O1782       O  0.64413355  0.56198831  0.28777298    -0.61700
O1783       O  0.59338076  0.56631043  0.31709031    -0.74200
O1784       O  0.63721351  0.65734930  0.28041196    -0.73000
Cu1785     Cu  0.64449228  0.62787716  0.33105691     1.04600
Cu1786     Cu  0.61458918  0.61058385  0.29773485     1.04300
C1787       C  0.65770790  0.68055081  0.29029629     0.93300
C1788       C  0.59914006  0.56265144  0.33903827     0.92400
C1789       C  0.66792617  0.55678887  0.29919893     0.84600
C1790       C  0.59034809  0.67847856  0.33089806     0.90900
O1791       O  0.64129908  0.93192926  0.25346283    -0.72900
O1792       O  0.58627127  0.83894354  0.22251095    -0.73900
O1793       O  0.63721632  0.83449535  0.25060483    -0.62500
O1794       O  0.58849278  0.93536121  0.22659010    -0.70900
O1795       O  0.61271465  0.93223071  0.19296089    -0.70500
O1796       O  0.66570997  0.83229193  0.21920185    -0.61700
O1797       O  0.61396169  0.83607445  0.19064033    -0.74200
O1798       O  0.66568575  0.93136891  0.21982960    -0.73000
Cu1799     Cu  0.61264829  0.88536422  0.23950262     1.04600
Cu1800     Cu  0.64067452  0.88309727  0.20460906     1.04300
C1801       C  0.66193451  0.94683644  0.24102770     0.93300
C1802       C  0.59116601  0.82427665  0.20119985     0.92400
C1803       C  0.65838428  0.81641319  0.23901255     0.84600
C1804       C  0.59104006  0.94711390  0.20537866     0.90900
O1805       O  0.23715275  0.93545322  0.21899975    -0.72900
O1806       O  0.28424841  0.83327511  0.18830542    -0.73900
O1807       O  0.23264534  0.83794508  0.21606290    -0.62500
O1808       O  0.28863524  0.92915009  0.19155873    -0.70900
O1809       O  0.31575566  0.92266717  0.22375853    -0.70500
O1810       O  0.25898073  0.83409766  0.24892606    -0.61700
O1811       O  0.31083103  0.82689137  0.22076025    -0.74200
O1812       O  0.26435216  0.93016152  0.25135998    -0.73000
Cu1813     Cu  0.25964150  0.88407771  0.20266250     1.04600
Cu1814     Cu  0.28829637  0.87829702  0.23739178     1.04300
C1815       C  0.24338104  0.94877672  0.24020727     0.93300
C1816       C  0.30595931  0.81586854  0.19897036     0.92400
C1817       C  0.23679915  0.82215819  0.23653363     0.84600
C1818       C  0.31183708  0.93836997  0.20329940     0.90900
C1819       C  0.22462033  0.98350356  0.25336102     0.86500
C1820       C  0.20794476  0.96034663  0.27223492    -0.53700
C1821       C  0.19038587  0.98859346  0.28551347     0.09500
C1822       C  0.19240116  0.53894302  0.27952788     0.20400
C1823       C  0.20143004  0.50860180  0.23926777    -0.54400
C1824       C  0.18447452  0.53850440  0.25288451     0.09600
C1825       C  0.24192584  0.52093755  0.26621209    -0.54000
C1826       C  0.22532121  0.55050904  0.28004639     0.10100
H1827       H  0.20807532  0.92331736  0.27360667     0.14700
H1828       H  0.17871449  0.56252572  0.29081201     0.00400
H1829       H  0.19914623  0.50458588  0.22017666     0.15000
H1830       H  0.26528296  0.52411615  0.26446541     0.14700
O1831       O  0.31057244  0.61218876  0.31503756    -0.72900
O1832       O  0.25827093  0.70259018  0.28289207    -0.73900
O1833       O  0.30701930  0.70711522  0.31402738    -0.62500
O1834       O  0.26212213  0.60587839  0.28326734    -0.70900
O1835       O  0.22968652  0.60790528  0.31203096    -0.70500
O1836       O  0.27903954  0.70531087  0.34563281    -0.61700
O1837       O  0.22902430  0.70581881  0.31393420    -0.74200
O1838       O  0.27886655  0.61044722  0.34408589    -0.73000
Cu1839     Cu  0.28525960  0.65713946  0.29765203     1.04600
Cu1840     Cu  0.25288035  0.65780266  0.32989097     1.04300
C1841       C  0.30361527  0.59910421  0.33546520     0.93300
C1842       C  0.23518850  0.71760156  0.29317005     0.92400
C1843       C  0.30279347  0.71629476  0.33596810     0.84600
C1844       C  0.23923125  0.59037607  0.29240778     0.90900
C1845       C  0.17721606  0.73429369  0.24698920     0.86500
C1846       C  0.15960030  0.77135210  0.26086612    -0.53700
C1847       C  0.17590343  0.80075795  0.27469425     0.09500
C1848       C  0.20906158  0.79019382  0.27317479     0.20400
C1849       C  0.19875296  0.76122794  0.23255383    -0.54400
C1850       C  0.21545448  0.79087084  0.24633006     0.09600
C1851       C  0.19569885  0.71096028  0.26535642    -0.54000
C1852       C  0.21262053  0.73925349  0.27885030     0.10100
H1853       H  0.13605881  0.77395437  0.25991002     0.14700
H1854       H  0.22266235  0.81374857  0.28437609     0.00400
H1855       H  0.20046872  0.75758406  0.21344120     0.15000
H1856       H  0.19657023  0.67393505  0.26671621     0.14700
N1857       N  0.44814533  0.50118090  0.06248167    -0.36600
N1858       N  0.49190085  0.00230452  0.10113796    -0.57100
N1859       N  0.44843904  0.01034195  0.13621392    -0.36600
N1860       N  0.40450082  0.01209324  0.09990235    -0.57100
C1861       C  0.47261919  0.51266878  0.05127915     0.27000
C1862       C  0.42516344  0.51879481  0.05072623     0.27000
C1863       C  0.47221272  0.02197971  0.14918822     0.27000
C1864       C  0.42486522  0.02472426  0.14857623     0.27000
C1865       C  0.50642690  0.48488818  0.08127561     0.35600
C1866       C  0.50737116  0.99034994  0.12029099     0.35600
C1867       C  0.38896848  0.49814032  0.07977319     0.35600
C1868       C  0.38847258  0.00088152  0.11859200     0.35600
C1869       C  0.46522841  0.53726120  0.03172377    -0.21800
C1870       C  0.43520026  0.54104491  0.03135186    -0.21800
C1871       C  0.46361429  0.04494225  0.17004282    -0.21800
C1872       C  0.43358253  0.04627646  0.16974738    -0.21800
C1873       C  0.53122599  0.46173542  0.08841375    -0.22900
C1874       C  0.53192060  0.96537723  0.11335958    -0.22900
C1875       C  0.36297622  0.47899822  0.08608076    -0.22900
C1876       C  0.36273571  0.98101294  0.11081286    -0.22900
C1877       C  0.50102769  0.49937372  0.05829762    -0.18200
C1878       C  0.39568992  0.51274146  0.05704561    -0.18200
C1879       C  0.39618929  0.01218733  0.14239434    -0.18200
C1880       C  0.50081655  0.00687967  0.14352075    -0.18200
H1881       H  0.48172833  0.55249976  0.35343158     0.14700
H1882       H  0.42435232  0.56004316  0.35175273     0.14700
H1883       H  0.47745857  0.05762966  0.18436741     0.14700
H1884       H  0.41972672  0.06005338  0.18378638     0.14700
H1885       H  0.54784619  0.44597787  0.07719073     0.13000
H1886       H  0.54881711  0.95185465  0.12456088     0.12900
H1887       H  0.34550986  0.46781035  0.07436920     0.13000
H1888       H  0.34534405  0.96877033  0.12144696     0.12900
H1889       H  0.44715846  0.47948180  0.07653950     0.26200
H1890       H  0.44800403  0.98726722  0.12161917     0.26200
N1891       N  0.45194573  0.71420914  0.07444348    -0.36600
N1892       N  0.49503485  0.70904909  0.11002619    -0.57100
N1893       N  0.45176062  0.70390722  0.14785230    -0.36600
N1894       N  0.40927210  0.70512127  0.10985233    -0.57100
C1895       C  0.47509595  0.73118292  0.06357175     0.27000
C1896       C  0.42793362  0.73012314  0.06359366     0.27000
C1897       C  0.47519617  0.72296785  0.15871601     0.27000
C1898       C  0.42785203  0.72287455  0.15836500     0.27000
C1899       C  0.51194129  0.70234792  0.09074737     0.35600
C1900       C  0.51111778  0.69759752  0.12888663     0.35600
C1901       C  0.39255474  0.69857691  0.09037367     0.35600
C1902       C  0.39294499  0.69494398  0.12845263     0.35600
C1903       C  0.46577344  0.75843011  0.04553330    -0.21800
C1904       C  0.43579537  0.75811253  0.04568959    -0.21800
C1905       C  0.46614499  0.75351042  0.17677962    -0.21800
C1906       C  0.43619761  0.75372309  0.17642389    -0.21800
C1907       C  0.53875756  0.68468325  0.09723417    -0.22900
C1908       C  0.53842271  0.68252198  0.12152128    -0.22900
C1909       C  0.36581851  0.68168339  0.09641680    -0.22900
C1910       C  0.36595472  0.67983757  0.12065433    -0.22900
C1911       C  0.50411704  0.71824663  0.06830518    -0.18200
C1912       C  0.39957571  0.71591743  0.06835363    -0.18200
C1913       C  0.39890321  0.71341341  0.15135797    -0.18200
C1914       C  0.50435147  0.71430168  0.15197605    -0.18200
H1915       H  0.47918401  0.77586129  0.03330133     0.14700
H1916       H  0.42145924  0.77503225  0.03350704     0.14700
H1917       H  0.47966272  0.77448523  0.18852406     0.14700
H1918       H  0.42219764  0.77481035  0.18784876     0.14700
H1919       H  0.55719912  0.67710534  0.08595126     0.13000
H1920       H  0.55674257  0.67403071  0.13267279     0.12900
H1921       H  0.34736403  0.67532648  0.08485960     0.13000
H1922       H  0.34745648  0.67262874  0.13147073     0.12900
H1923       H  0.45256011  0.68793300  0.08627191     0.26200
H1924       H  0.45216176  0.67836441  0.13432139     0.26200
O1925       O  0.72710923  0.66614193  0.21029956    -0.72900
O1926       O  0.78308667  0.56514695  0.18752579    -0.73900
O1927       O  0.73291618  0.57142879  0.21677793    -0.62500
O1928       O  0.77773572  0.65822245  0.17976426    -0.70900
O1929       O  0.80706965  0.67286941  0.21043516    -0.70500
O1930       O  0.76060518  0.58806696  0.24822477    -0.61700
O1931       O  0.81063754  0.58043060  0.21914880    -0.74200
O1932       O  0.75668245  0.68300893  0.24053296    -0.73000
Cu1933     Cu  0.75408722  0.61508336  0.19754390     1.04600
Cu1934     Cu  0.78454978  0.63193757  0.23070461     1.04300
C1935       C  0.73254183  0.68874019  0.22973802     0.93300
C1936       C  0.80636983  0.55837476  0.19943303     0.92400
C1937       C  0.73967791  0.56591018  0.23833724     0.84600
C1938       C  0.80124530  0.67477511  0.18841277     0.90900
O1939       O  0.80794725  0.81125259  0.30348325    -0.72900
O1940       O  0.76198052  0.91160488  0.27404914    -0.73900
O1941       O  0.81374447  0.90570085  0.30178971    -0.62500
O1942       O  0.75617671  0.81488336  0.27423675    -0.70900
O1943       O  0.73034594  0.82136878  0.30714112    -0.70500
O1944       O  0.78546582  0.91942256  0.33290706    -0.61700
O1945       O  0.73298530  0.91827861  0.30522050    -0.74200
O1946       O  0.78163987  0.82395967  0.33576553    -0.73000
Cu1947     Cu  0.78561223  0.86045359  0.28709440     1.04600
Cu1948     Cu  0.75648926  0.87094649  0.32126664     1.04300
C1949       C  0.80363337  0.80555469  0.32543289     0.93300
C1950       C  0.74061665  0.93101793  0.28505273     0.92400
C1951       C  0.80941523  0.92523133  0.32212680     0.84600
C1952       C  0.73447913  0.80323483  0.28637041     0.90900
C1953       C  0.35227395  0.69565803  0.01395866    -0.05700
C1954       C  0.32864875  0.72674729  0.35084675     0.00200
C1955       C  0.32799189  0.75176141  0.04046473    -0.08400
C1956       C  0.35282111  0.75076761  0.05523548    -0.05700
C1957       C  0.37633889  0.72063487  0.05022414     0.00200
C1958       C  0.37609991  0.69248192  0.02924995    -0.08300
C1959       C  0.39963745  0.65654544  0.02378011     0.62100
H1960       H  0.35178282  0.67351416  0.99808901     0.12800
H1961       H  0.35352795  0.77181581  0.07149636     0.12800
C1962       C  0.30295030  0.78591647  0.37838719     0.62300
F1963       F  0.39237276  0.62796453  0.00448861    -0.22800
F1964       F  0.40368104  0.62976411  0.04302964    -0.20200
F1965       F  0.42544025  0.67718226  0.01867841    -0.19800
F1966       F  0.27862952  0.75745216  0.05222003    -0.19900
F1967       F  0.29666671  0.81335092  0.35972590    -0.20200
F1968       F  0.30889787  0.81405607  0.39814822    -0.22900
C1969       C  0.35104421  0.56030014  0.05379292    -0.05700
C1970       C  0.37083628  0.52983194  0.04225371     0.00200
C1971       C  0.36557239  0.51679917  0.01808754    -0.08400
C1972       C  0.34492952  0.54315447  0.33821397    -0.05700
C1973       C  0.32530599  0.57372433  0.34983889     0.00200
C1974       C  0.32626210  0.57761605  0.04250426    -0.08300
C1975       C  0.30397734  0.60475798  0.05735160     0.62100
H1976       H  0.35502830  0.57015527  0.07220222     0.12800
H1977       H  0.34208150  0.53559477  0.31940377     0.12800
C1978       C  0.38061259  0.97785945  0.00572311     0.62300
F1979       F  0.31136770  0.60721140  0.08113512    -0.22800
F1980       F  0.27732472  0.58366764  0.05535275    -0.20200
F1981       F  0.30463234  0.65439955  0.38178286    -0.19800
F1982       F  0.39971894  0.95434621  0.01982364    -0.19900
F1983       F  0.39563174  0.99377026  0.98680757    -0.20200
F1984       F  0.36431888  0.95273668  0.32510548    -0.22900
C1985       C  0.32692756  0.00089370  0.17801748    -0.05700
C1986       C  0.33505765  0.96439225  0.19209308     0.00200
C1987       C  0.36459107  0.94948404  0.19241753    -0.08400
C1988       C  0.38413618  0.96898573  0.17706409    -0.05700
C1989       C  0.37551987  0.00291134  0.16169916     0.00200
C1990       C  0.34690503  0.02144765  0.16326550    -0.08300
C1991       C  0.33625225  0.06190605  0.14957785     0.62100
H1992       H  0.30453546  0.01290922  0.17817300     0.12800
H1993       H  0.40616044  0.95565320  0.17578356     0.12800
C1994       C  0.37533333  0.91070291  0.20733748     0.62300
F1995       F  0.32420064  0.09470743  0.16511550    -0.22800
F1996       F  0.31513588  0.04764375  0.13346009    -0.20200
F1997       F  0.35897028  0.58092494  0.13671375    -0.19800
F1998       F  0.36030798  0.87140078  0.20122809    -0.19900
F1999       F  0.37140791  0.92233348  0.23105930    -0.20200
F2000       F  0.40458842  0.90103240  0.20405083    -0.22900
C2001       C  0.35952681  0.77145024  0.15238813    -0.05700
C2002       C  0.37422459  0.73683776  0.16419743     0.00200
C2003       C  0.36463162  0.72502446  0.18674353    -0.08400
C2004       C  0.34176948  0.75098157  0.19745878    -0.05700
C2005       C  0.32712724  0.78592420  0.18560760     0.00200
C2006       C  0.33548080  0.79509115  0.16216174    -0.08300
C2007       C  0.31987580  0.83022691  0.14739227     0.62100
H2008       H  0.36711887  0.77953733  0.13504059     0.12800
H2009       H  0.33501696  0.74397962  0.21518647     0.12800
C2010       C  0.37765009  0.68426058  0.19889289     0.62300
F2011       F  0.33225296  0.83345476  0.12533796    -0.22800
F2012       F  0.32097712  0.87302321  0.15874081    -0.20200
F2013       F  0.29126864  0.81777131  0.14376322    -0.19800
F2014       F  0.40653812  0.69152522  0.20432553    -0.19900
F2015       F  0.37546948  0.64549732  0.18405322    -0.20200
F2016       F  0.36340539  0.67626285  0.21969319    -0.22900
C2017       C  0.57381992  0.00235961  0.17595346    -0.05700
C2018       C  0.56706216  0.97359940  0.19422939     0.00200
C2019       C  0.53726150  0.96463074  0.19865162    -0.08400
C2020       C  0.51624414  0.97828814  0.18219274    -0.05700
C2021       C  0.52335677  0.00345092  0.16265936     0.00200
C2022       C  0.55224851  0.01935150  0.16076063    -0.08300
C2023       C  0.56164786  0.05366032  0.14314586     0.62100
H2024       H  0.59631581  0.01099242  0.17320084     0.12800
H2025       H  0.49408780  0.96702518  0.18373977     0.12800
C2026       C  0.52731615  0.93823874  0.21958372     0.62300
F2027       F  0.57450297  0.09030166  0.15528314    -0.22800
F2028       F  0.54035707  0.57082229  0.12924245    -0.20200
F2029       F  0.58179942  0.03329775  0.12785169    -0.19800
F2030       F  0.53652232  0.96010068  0.24046628    -0.19900
F2031       F  0.53837135  0.89408182  0.21797148    -0.20200
F2032       F  0.49735597  0.93545964  0.22053236    -0.22900
C2033       C  0.56026775  0.75508550  0.19838416    -0.05700
C2034       C  0.56986750  0.79499678  0.18814279     0.00200
C2035       C  0.55859056  0.80677851  0.16572257    -0.08400
C2036       C  0.53733054  0.77913055  0.15492752    -0.05700
C2037       C  0.52768225  0.73953467  0.16509454     0.00200
C2038       C  0.53962830  0.72637338  0.18686839    -0.08300
C2039       C  0.53100964  0.68197361  0.19744892     0.62100
H2040       H  0.56932653  0.74633095  0.21532888     0.12800
H2041       H  0.52776698  0.78823151  0.13820804     0.12800
C2042       C  0.56788454  0.84907243  0.15332710     0.62300
F2043       F  0.54721898  0.67333682  0.21750382    -0.22800
F2044       F  0.53542476  0.64592838  0.18109886    -0.20200
F2045       F  0.50202648  0.68399904  0.20356705    -0.19800
F2046       F  0.59686267  0.84535252  0.14732907    -0.19900
F2047       F  0.56346203  0.88724950  0.16805719    -0.20200
F2048       F  0.55215980  0.85540118  0.13273243    -0.22900
C2049       C  0.51795964  0.69080682  0.02805091    -0.05700
C2050       C  0.52541822  0.71717963  0.04846074     0.00200
C2051       C  0.55279007  0.73883723  0.04949977    -0.08400
C2052       C  0.57347751  0.72635108  0.03204425    -0.05700
C2053       C  0.56563119  0.70062047  0.34404316     0.00200
C2054       C  0.53654049  0.68572411  0.34076298    -0.08300
C2055       C  0.52603752  0.65998487  0.31841314     0.62100
H2056       H  0.49664479  0.67562242  0.02715268     0.12800
H2057       H  0.59528731  0.73956067  0.03393673     0.12800
C2058       C  0.56116400  0.77519962  0.06827563     0.62300
F2059       F  0.49613362  0.65548264  0.31806041    -0.22800
F2060       F  0.53827822  0.61652698  0.31686853    -0.20200
F2061       F  0.53340385  0.68368770  0.29880707    -0.19800
F2062       F  0.58320891  0.75855110  0.08236173    -0.19900
F2063       F  0.53815258  0.78933359  0.08248710    -0.20200
F2064       F  0.57108300  0.81326589  0.05737338    -0.22900
C2065       C  0.55810847  0.50920052  0.34340949    -0.05700
C2066       C  0.57746652  0.54086100  0.35424114     0.00200
C2067       C  0.57238014  0.55339419  0.04403419    -0.08400
C2068       C  0.54656968  0.54117082  0.05488219    -0.05700
C2069       C  0.52698359  0.51021153  0.04409435     0.00200
C2070       C  0.53399206  0.49266138  0.35537856    -0.08300
C2071       C  0.51602947  0.45594552  0.34258784     0.62100
H2072       H  0.56182882  0.49713903  0.32526366     0.12800
H2073       H  0.54130801  0.55584842  0.07228122     0.12800
C2074       C  0.59299259  0.58489436  0.05796352     0.62300
F2075       F  0.53424473  0.42107194  0.33399880    -0.22800
F2076       F  0.50265591  0.46967166  0.98912700    -0.20200
F2077       F  0.49592295  0.43667474  0.35695672    -0.19800
F2078       F  0.59505745  0.62599285  0.04717523    -0.19900
F2079       F  0.62041955  0.57061320  0.39265648    -0.20200
F2080       F  0.58369473  0.59450849  0.08088921    -0.22900
C2081       C  0.05006258  0.76245410  0.36377943    -0.05700
C2082       C  0.02745791  0.78716156  0.03579386     0.00200
C2083       C  0.02748106  0.83366530  0.02978807    -0.08400
C2084       C  0.05049567  0.84888821  0.01635939    -0.05700
C2085       C  0.07215897  0.82263153  0.34228247     0.00200
C2086       C  0.07341062  0.77765622  0.35033837    -0.08300
C2087       C  0.09879572  0.74580437  0.34422653     0.62100
H2088       H  0.05040454  0.72808579  0.37011744     0.12800
H2089       H  0.05055420  0.88441277  0.01160079     0.12800
C2090       C  0.00468524  0.86934373  0.03750986     0.62300
F2091       F  0.09503515  0.70273172  0.35277162    -0.22800
F2092       F  0.12414073  0.76342884  0.35393715    -0.20200
F2093       F  0.10156781  0.74112597  0.31991733    -0.19800
F2094       F  0.98285267  0.85279655  0.05113783    -0.19900
F2095       F  0.99211485  0.88744158  0.01768014    -0.20200
F2096       F  0.01803171  0.90405570  0.05070333    -0.22900
C2097       C  0.83082526  0.65365884  0.15406557    -0.05700
C2098       C  0.82424678  0.68693128  0.17196124     0.00200
C2099       C  0.84196315  0.72575844  0.17516605    -0.08400
C2100       C  0.86553754  0.73033880  0.15975691    -0.05700
C2101       C  0.87248805  0.69636110  0.14215397     0.00200
C2102       C  0.85533174  0.65645514  0.13981351    -0.08300
C2103       C  0.86177020  0.61554117  0.12300034     0.62100
H2104       H  0.81758363  0.62329649  0.15215357     0.12800
H2105       H  0.87883811  0.76057845  0.16132287     0.12800
C2106       C  0.83548314  0.76249047  0.19426102     0.62300
F2107       F  0.85981847  0.57631595  0.13522483    -0.22800
F2108       F  0.88919540  0.61608943  0.11330374    -0.20200
F2109       F  0.84126250  0.61320077  0.10501548    -0.19800
F2110       F  0.84030013  0.74531722  0.21630394    -0.19900
F2111       F  0.80681054  0.77678333  0.19245859    -0.20200
F2112       F  0.85291364  0.80024873  0.19233950    -0.22900
C2113       C  0.84234982  0.74565322  0.32951278    -0.05700
C2114       C  0.82626057  0.78285097  0.33964477     0.00200
C2115       C  0.83349177  0.78699269  0.02816931    -0.08400
C2116       C  0.86065970  0.77526028  0.03728970    -0.05700
C2117       C  0.87863943  0.74177392  0.02621542     0.00200
C2118       C  0.86680632  0.72734786  0.34124719    -0.08300
C2119       C  0.88010646  0.68190223  0.33261721     0.62100
H2120       H  0.83513604  0.73028877  0.31273247     0.12800
H2121       H  0.86700426  0.78861024  0.05468743     0.12800
C2122       C  0.81220108  0.81328221  0.04445934     0.62300
F2123       F  0.86391331  0.66153114  0.31438845    -0.22800
F2124       F  0.88120871  0.65228230  0.35094889    -0.20200
F2125       F  0.90787661  0.68808869  0.32449375    -0.19800
F2126       F  0.78633788  0.78990667  0.04501918    -0.19900
F2127       F  0.80706372  0.85678014  0.03686794    -0.20200
F2128       F  0.82249009  0.81770644  0.06750224    -0.22900
C2129       C  0.05000215  0.98886828  0.05669605    -0.05700
C2130       C  0.03018896  0.01868057  0.04596196     0.00200
C2131       C  0.03751142  0.03634216  0.02392558    -0.08400
C2132       C  0.06387435  0.02531605  0.34618183    -0.05700
C2133       C  0.08097302  0.98989796  0.35542706     0.00200
C2134       C  0.07577632  0.97340824  0.04576707    -0.08300
C2135       C  0.09587643  0.94143333  0.05897292     0.62100
H2136       H  0.04450678  0.97636414  0.07375697     0.12800
H2137       H  0.06946612  0.03812298  0.32916851     0.12800
C2138       C  0.02452429  0.08532996  0.34792030     0.62300
F2139       F  0.08578763  0.93324491  0.08129616    -0.22800
F2140       F  0.12298707  0.96082611  0.06165707    -0.20200
F2141       F  0.09829231  0.89958177  0.04678124    -0.19800
F2142       F  0.00190862  0.10273420  0.36165689    -0.19900
F2143       F  0.01008472  0.05587731  0.99021878    -0.20200
F2144       F  0.04453179  0.11974485  0.34593451    -0.22900
C2145       C  0.85993014  0.00210446  0.02352414    -0.05700
C2146       C  0.87900730  0.97201885  0.03498527     0.00200
C2147       C  0.87638245  0.92415096  0.03035244    -0.08400
C2148       C  0.85440534  0.90819676  0.01483167    -0.05700
C2149       C  0.83435744  0.94729744  0.33487401     0.00200
C2150       C  0.83446031  0.99325017  0.34391825    -0.08300
C2151       C  0.80982972  0.02604914  0.33837404     0.62100
H2152       H  0.85841842  0.04310317  0.36567786     0.12800
H2153       H  0.85215144  0.87166086  0.01141960     0.12800
C2154       C  0.89421467  0.88818188  0.04281932     0.62300
F2155       F  0.81467043  0.06964494  0.34810124    -0.22800
F2156       F  0.78416863  0.01067217  0.34743696    -0.20200
F2157       F  0.80695921  0.02878148  0.31414291    -0.19800
F2158       F  0.87702878  0.86965961  0.05966231    -0.19900
F2159       F  0.91886402  0.90481841  0.05401230    -0.20200
F2160       F  0.90296284  0.85393050  0.02660802    -0.22900
C2161       C  0.85787527  0.55230981  0.18959304    -0.05700
C2162       C  0.83082613  0.53109913  0.18881217     0.00200
C2163       C  0.82792514  0.48848230  0.17617569    -0.08400
C2164       C  0.85151925  0.47130909  0.16240295    -0.05700
C2165       C  0.87731451  0.49614590  0.16051939     0.00200
C2166       C  0.88129182  0.53604007  0.17570802    -0.08300
C2167       C  0.90899510  0.56408153  0.17632746     0.62100
H2168       H  0.85989024  0.58407714  0.20006698     0.12800
H2169       H  0.84926711  0.43985905  0.15169686     0.12800
C2170       C  0.80033303  0.46117971  0.17753413     0.62300
F2171       F  0.90573258  0.60470565  0.18968599    -0.22800
F2172       F  0.91671242  0.57508523  0.15378725    -0.20200
F2173       F  0.93131862  0.53980787  0.18652430    -0.19800
F2174       F  0.77777909  0.48331984  0.16632567    -0.19900
F2175       F  0.79325514  0.45637013  0.20098602    -0.20200
F2176       F  0.80356672  0.41784733  0.16685486    -0.22900
C2177       C  0.04171925  0.69510200  0.14266561    -0.05700
C2178       C  0.02288782  0.72973185  0.15124408     0.00200
C2179       C  0.02796853  0.75094483  0.17388940    -0.08400
C2180       C  0.05055124  0.73337738  0.18811246    -0.05700
C2181       C  0.06948878  0.69837145  0.17943001     0.00200
C2182       C  0.06577445  0.68050646  0.15567584    -0.08300
C2183       C  0.08647350  0.64570892  0.14367441     0.62100
H2184       H  0.03753220  0.68012574  0.12511257     0.12800
H2185       H  0.05403059  0.74758486  0.20590828     0.12800
C2186       C  0.01061372  0.79294282  0.18239860     0.62300
F2187       F  0.07787009  0.63333157  0.12079362    -0.22800
F2188       F  0.08766994  0.60645359  0.15619157    -0.20200
F2189       F  0.11387325  0.66401053  0.14224661    -0.19800
F2190       F  0.98154005  0.78274824  0.18393756    -0.19900
F2191       F  0.01382809  0.82718875  0.16663476    -0.20200
F2192       F  0.01993054  0.80949132  0.20445785    -0.22900
C2193       C  0.01698135  0.52856622  0.18327413    -0.05700
C2194       C  0.02396259  0.50448734  0.16207859     0.00200
C2195       C  0.05318570  0.49022392  0.15811208    -0.08400
C2196       C  0.07486734  0.50652581  0.17380058    -0.05700
C2197       C  0.06830382  0.53492993  0.19377411     0.00200
C2198       C  0.03847205  0.54354126  0.19954243    -0.08300
C2199       C  0.02876300  0.57121275  0.22162311     0.62100
H2200       H  0.99453338  0.53878681  0.18608501     0.12800
H2201       H  0.09741028  0.49867248  0.16971054     0.12800
C2202       C  0.06297766  0.46014872  0.13703773     0.62300
F2203       F  0.03752872  0.61603698  0.22053225    -0.22800
F2204       F  0.04037932  0.55216089  0.24157329    -0.20200
F2205       F  0.99884501  0.57185614  0.22403365    -0.19800
F2206       F  0.07928695  0.99210700  0.11998701    -0.19900
F2207       F  0.03882548  0.94988343  0.12033153    -0.20200
F2208       F  0.07801542  0.92836811  0.14062003    -0.22900
O2209       O  0.08882060  0.57705687  0.55814523    -0.72900
O2210       O  0.13574612  0.68331754  0.57961891    -0.73900
O2211       O  0.08497756  0.67129242  0.55070526    -0.62500
O2212       O  0.14149065  0.58736176  0.58564322    -0.70900
O2213       O  0.16643952  0.57818652  0.55242087    -0.70500
O2214       O  0.11442895  0.66500374  0.52008969    -0.61700
O2215       O  0.16482791  0.67565860  0.54859742    -0.74200
O2216       O  0.11387188  0.57028719  0.52502000    -0.73000
Cu2217     Cu  0.11200533  0.63011995  0.56975983     1.04600
Cu2218     Cu  0.14098133  0.62192498  0.53553305     1.04300
C2219       C  0.09181737  0.55981373  0.53727181     0.93300
C2220       C  0.15745939  0.69651986  0.56808893     0.92400
C2221       C  0.09055205  0.67898014  0.52908478     0.84600
C2222       C  0.16279515  0.56899401  0.57396904     0.90900
N2223       N  0.94998952  0.48913184  0.46658363    -0.36600
N2224       N  0.90717481  0.99053976  0.42807647    -0.57100
N2225       N  0.95047853  0.02028562  0.39430226    -0.36600
N2226       N  0.99297756  0.01876780  0.43297963    -0.57100
C2227       C  0.92686418  0.47287986  0.47769448     0.27000
C2228       C  0.97401158  0.47843941  0.47921647     0.27000
C2229       C  0.92999026  0.00341398  0.37905242     0.27000
C2230       C  0.97595411  0.02145578  0.38243683     0.27000
C2231       C  0.88907357  0.48997038  0.44810539     0.35600
C2232       C  0.89042506  0.99465197  0.40848013     0.35600
C2233       C  0.00782426  0.51929243  0.45460608     0.35600
C2234       C  0.00621472  0.04397211  0.41705536     0.35600
C2235       C  0.93605675  0.45059831  0.49754258    -0.21800
C2236       C  0.96602002  0.45363397  0.49836602    -0.21800
C2237       C  0.94212795  0.99737969  0.35673172    -0.21800
C2238       C  0.97126432  0.00718492  0.35903949    -0.21800
C2239       C  0.86078580  0.49728520  0.44039628    -0.22900
C2240       C  0.86145553  0.99806033  0.41487780    -0.22900
C2241       C  0.03038684  0.54919462  0.45159383    -0.22900
C2242       C  0.02969638  0.06630274  0.42755860    -0.22900
C2243       C  0.89793013  0.48459089  0.47202201    -0.18200
C2244       C  0.00187205  0.49658490  0.47544004    -0.18200
C2245       C  0.00312679  0.03485485  0.39252893    -0.19000
C2246       C  0.90080468  0.99306068  0.38485718    -0.18200
H2247       H  0.92248468  0.43571267  0.51057469     0.14700
H2248       H  0.98007164  0.44147435  0.51221839     0.14700
H2249       H  0.93140994  0.98515667  0.34060405     0.14700
H2250       H  0.98706899  0.00381106  0.34504261     0.14700
H2251       H  0.84139705  0.50147849  0.45094044     0.13000
H2252       H  0.84268227  0.00090832  0.40342777     0.12900
H2253       H  0.04617949  0.56094751  0.46464533     0.13000
H2254       H  0.04564514  0.08637189  0.41888740     0.12900
H2255       H  0.94850443  0.51315708  0.45366900     0.26200
H2256       H  0.94706767  0.03188974  0.41171735     0.26200
N2257       N  0.94655993  0.74216648  0.46045393    -0.36600
N2258       N  0.99240172  0.76144315  0.42735946    -0.57100
N2259       N  0.95362845  0.74360896  0.38680639    -0.36600
N2260       N  0.90745166  0.72562837  0.42019905    -0.57100
C2261       C  0.97038553  0.73468374  0.47402733     0.27000
C2262       C  0.92408686  0.72187119  0.47082595     0.27000
C2263       C  0.97645401  0.76121096  0.37549345     0.27000
C2264       C  0.93042465  0.74472812  0.37188451     0.27000
C2265       C  0.00687622  0.76836715  0.44809101     0.35600
C2266       C  0.01013417  0.77516361  0.41024836     0.35600
C2267       C  0.88814471  0.72404805  0.43801126     0.35600
C2268       C  0.89169990  0.72222058  0.39995475     0.35600
C2269       C  0.96277429  0.70964254  0.49319313    -0.21800
C2270       C  0.93342626  0.70247306  0.49142741    -0.21800
C2271       C  0.96811193  0.77048042  0.35257986    -0.21800
C2272       C  0.93903750  0.76127678  0.35053952    -0.21800
C2273       C  0.03364541  0.78747050  0.44418817    -0.22900
C2274       C  0.03568771  0.79194409  0.42028667    -0.22900
C2275       C  0.86021061  0.72006571  0.42907786    -0.22900
C2276       C  0.86259992  0.71615373  0.40516315    -0.22900
C2277       C  0.99871490  0.75025033  0.46974757    -0.18200
C2278       C  0.89538401  0.71980428  0.46205981    -0.18200
C2279       C  0.90123381  0.73471581  0.37739474    -0.18200
C2280       C  0.00373285  0.77373993  0.38568058    -0.18200
H2281       H  0.97684616  0.69790642  0.50713428     0.14700
H2282       H  0.92055974  0.68397480  0.50356630     0.14700
H2283       H  0.98072181  0.78428014  0.67187568     0.14700
H2284       H  0.92535969  0.76606438  0.66881546     0.14700
H2285       H  0.05035765  0.79581370  0.45718614     0.13000
H2286       H  0.05409918  0.80557822  0.41133884     0.12900
H2287       H  0.84011347  0.71855120  0.43874815     0.13000
H2288       H  0.84447988  0.71279282  0.39292291     0.12900
H2289       H  0.94513499  0.76236594  0.44595619     0.26200
H2290       H  0.95396896  0.73139189  0.40371612     0.26200
O2291       O  0.09495916  0.95649901  0.65065746    -0.72900
O2292       O  0.13985545  0.85967258  0.61224350    -0.73900
O2293       O  0.09058223  0.86243318  0.64242720    -0.62500
O2294       O  0.14403168  0.95690592  0.62000825    -0.70900
O2295       O  0.17412079  0.94516526  0.65009337    -0.70500
O2296       O  0.12031377  0.84981064  0.67257314    -0.61700
O2297       O  0.17017468  0.84887630  0.64218976    -0.74200
O2298       O  0.12482385  0.94612063  0.34806208    -0.73000
Cu2299     Cu  0.11657751  0.90943392  0.63016814     1.04600
Cu2300     Cu  0.14849405  0.89701007  0.66239530     1.04300
C2301       C  0.10159976  0.96286744  0.67252872     0.93300
C2302       C  0.16156759  0.83837109  0.62115679     0.92400
C2303       C  0.09608604  0.84344960  0.66180935     0.84600
C2304       C  0.16785325  0.96478092  0.63099843     0.90900
C2305       C  0.67462958  0.71145785  0.60967050     0.86500
C2306       C  0.69104137  0.68528693  0.58987551    -0.53700
C2307       C  0.70805309  0.71137821  0.57650465     0.09500
C2308       C  0.70580650  0.76317819  0.58350078     0.20400
C2309       C  0.69776681  0.73935248  0.62363622    -0.54400
C2310       C  0.71385821  0.76675350  0.61005253     0.09600
C2311       C  0.65677754  0.74734596  0.59709083    -0.54000
C2312       C  0.67280090  0.77498717  0.58341936     0.10100
H2313       H  0.69065028  0.64835356  0.58747312     0.14700
H2314       H  0.71891898  0.78525010  0.57239924     0.00400
H2315       H  0.70035524  0.74139512  0.30881131     0.15000
H2316       H  0.63348347  0.75154816  0.59945988     0.14700
C2317       C  0.72250785  0.53361511  0.58495295     0.86500
C2318       C  0.74074439  0.49572791  0.59510985    -0.53700
C2319       C  0.72627904  0.96732368  0.60821285     0.09500
C2320       C  0.69352115  0.98050081  0.61073435     0.20400
C2321       C  0.69746528  0.50856562  0.57177906    -0.54400
C2322       C  0.68273347  0.97968429  0.58496528     0.09600
C2323       C  0.70867945  0.55874147  0.60629318    -0.54000
C2324       C  0.69208466  0.53233279  0.61975400     0.10100
H2325       H  0.76450401  0.99052351  0.59079171     0.14700
H2326       H  0.68132724  0.95796990  0.62225659     0.00400
H2327       H  0.69331941  0.51074919  0.55295056     0.15000
H2328       H  0.70972922  0.59553848  0.60933050     0.14700
O2329       O  0.66417342  0.67371942  0.64583819    -0.72900
O2330       O  0.62268704  0.57942726  0.68206617    -0.73900
O2331       O  0.67299762  0.57878539  0.65168713    -0.62500
O2332       O  0.61473854  0.67233462  0.67647808    -0.70900
O2333       O  0.58649982  0.65776711  0.64531536    -0.70500
O2334       O  0.64399618  0.56203536  0.62105093    -0.61700
O2335       O  0.59412393  0.56482690  0.65111531    -0.74200
O2336       O  0.63637494  0.65712292  0.61452582    -0.73000
Cu2337     Cu  0.64477855  0.62650355  0.66499993     1.04600
Cu2338     Cu  0.61443567  0.60988663  0.63185628     1.04300
C2339       C  0.65718824  0.67973310  0.62426879     0.93300
C2340       C  0.60001329  0.56077877  0.67300602     0.92400
C2341       C  0.66800605  0.55661533  0.63212680     0.84600
C2342       C  0.59026912  0.67652251  0.66593701     0.90900
O2343       O  0.64110037  0.93109276  0.58728047    -0.72900
O2344       O  0.58676648  0.83660627  0.55613003    -0.73900
O2345       O  0.63735336  0.83367905  0.58470155    -0.62500
O2346       O  0.58828286  0.93325617  0.55983730    -0.70900
O2347       O  0.61299675  0.93002292  0.52645733    -0.70500
O2348       O  0.66634832  0.83153339  0.55359585    -0.61700
O2349       O  0.61523909  0.83373996  0.52476920    -0.74200
O2350       O  0.66575892  0.93025011  0.55378020    -0.73000
Cu2351     Cu  0.61267652  0.88390297  0.57321690     1.04600
Cu2352     Cu  0.64122714  0.88155128  0.53863146     1.04300
C2353       C  0.66192422  0.94577376  0.57494428     0.93300
C2354       C  0.59227288  0.82165843  0.53495170     0.92400
C2355       C  0.65870566  0.81568726  0.57331699     0.84600
C2356       C  0.59097021  0.94458391  0.53855907     0.90900
O2357       O  0.23668465  0.93133246  0.55150072    -0.72900
O2358       O  0.28383446  0.82932360  0.52064631    -0.73900
O2359       O  0.23216841  0.83385214  0.54854531    -0.62500
O2360       O  0.28839156  0.92506114  0.52438221    -0.70900
O2361       O  0.31548210  0.91806548  0.55657761    -0.70500
O2362       O  0.25851656  0.83009522  0.58141742    -0.61700
O2363       O  0.31024599  0.82257205  0.55318625    -0.74200
O2364       O  0.26387562  0.92603107  0.58386302    -0.73000
Cu2365     Cu  0.25922686  0.87998645  0.53518500     1.04600
Cu2366     Cu  0.28782217  0.87397796  0.56994677     1.04300
C2367       C  0.24294739  0.94475860  0.57267714     0.93300
C2368       C  0.30556697  0.81199088  0.53131334     0.92400
C2369       C  0.23630203  0.81829358  0.56908120     0.84600
C2370       C  0.31160948  0.93398894  0.53618520     0.90900
C2371       C  0.22444288  0.98007463  0.58571216     0.86500
C2372       C  0.20812726  0.95776585  0.60510468    -0.53700
C2373       C  0.19094309  0.98665164  0.61838212     0.09500
C2374       C  0.19188429  0.53777678  0.61152566     0.20400
C2375       C  0.20098647  0.50717832  0.57132275    -0.54400
C2376       C  0.18403046  0.53717098  0.58487670     0.09600
C2377       C  0.24142279  0.51941178  0.59837111    -0.54000
C2378       C  0.22479684  0.54905416  0.61213756     0.10100
H2379       H  0.20805062  0.92080878  0.60674916     0.14700
H2380       H  0.17821851  0.56150303  0.62275031     0.00400
H2381       H  0.19870325  0.50301204  0.55223695     0.15000
H2382       H  0.26481345  0.52236424  0.59678275     0.14700
O2383       O  0.30952900  0.60952124  0.64874061    -0.72900
O2384       O  0.25733618  0.70083438  0.61657691    -0.73900
O2385       O  0.30543680  0.70487681  0.64853143    -0.62500
O2386       O  0.26170667  0.60407207  0.61623319    -0.70900
O2387       O  0.22868908  0.60526821  0.64455443    -0.70500
O2388       O  0.27716831  0.70149083  0.67986879    -0.61700
O2389       O  0.22764853  0.70304195  0.64731023    -0.74200
O2390       O  0.27724503  0.60642434  0.67727999    -0.73000
Cu2391     Cu  0.28429944  0.65508795  0.63139685     1.04600
Cu2392     Cu  0.25139252  0.65446147  0.66321068     1.04300
C2393       C  0.30219456  0.59543522  0.66888881     0.93300
C2394       C  0.23400792  0.71537288  0.62666257     0.92400
C2395       C  0.30102970  0.71294643  0.67053906     0.84600
C2396       C  0.23861557  0.58837388  0.62493550     0.90900
C2397       C  0.17611585  0.73221870  0.58023728     0.86500
C2398       C  0.15878625  0.77011333  0.59371750    -0.53700
C2399       C  0.17537780  0.79952206  0.60731118     0.09500
C2400       C  0.20843984  0.78799490  0.60600205     0.20400
C2401       C  0.19796192  0.75803571  0.56560312    -0.54400
C2402       C  0.21487875  0.78762169  0.57913748     0.09600
C2403       C  0.19425391  0.70899542  0.59890917    -0.54000
C2404       C  0.21147494  0.73720345  0.61221236     0.10100
H2405       H  0.13526840  0.77322160  0.59270940     0.14700
H2406       H  0.22222817  0.81159639  0.61701116     0.00400
H2407       H  0.19964630  0.75385744  0.54650257     0.15000
H2408       H  0.19474301  0.67203605  0.60054918     0.14700
N2409       N  0.44886496  0.50185182  0.39599760    -0.36600
N2410       N  0.49162767  0.00021843  0.43406257    -0.57100
N2411       N  0.44801689  0.00827465  0.46914993    -0.36600
N2412       N  0.40398824  0.01003603  0.43285453    -0.57100
C2413       C  0.47364021  0.51336450  0.38522225     0.27000
C2414       C  0.42625001  0.52011690  0.38402965     0.27000
C2415       C  0.47176209  0.01941817  0.48230868     0.27000
C2416       C  0.42435802  0.02151671  0.48173434     0.27000
C2417       C  0.50697496  0.48455443  0.41537197     0.35600
C2418       C  0.50729010  0.98896433  0.45324783     0.35600
C2419       C  0.38913262  0.50011856  0.41247917     0.35600
C2420       C  0.38784113  0.99879560  0.45149066     0.35600
C2421       C  0.46678038  0.53860260  0.36577204    -0.21800
C2422       C  0.43681381  0.54273547  0.36497837    -0.21800
C2423       C  0.46302908  0.04094601  0.50350385    -0.21800
C2424       C  0.43299917  0.04185078  0.50322867    -0.21800
C2425       C  0.53169640  0.46128435  0.42257071    -0.22900
C2426       C  0.53199871  0.96433833  0.44636477    -0.22900
C2427       C  0.36268089  0.48197111  0.41836215    -0.22900
C2428       C  0.36196726  0.97954612  0.44359021    -0.22900
C2429       C  0.50190470  0.49974090  0.39247070    -0.18200
C2430       C  0.39658488  0.51464309  0.38986256    -0.18200
C2431       C  0.39567923  0.00904686  0.47539757    -0.18200
C2432       C  0.50049623  0.00493040  0.47653425    -0.18200
H2433       H  0.48050311  0.54929162  0.68539867     0.14700
H2434       H  0.42299822  0.55600767  0.68409789     0.14700
H2435       H  0.47679565  0.05285049  0.51804683     0.14700
H2436       H  0.41909866  0.05449402  0.51749048     0.14700
H2437       H  0.54857616  0.44610614  0.41141263     0.13000
H2438       H  0.54901084  0.95119463  0.45757975     0.12900
H2439       H  0.34526185  0.47171133  0.40638568     0.13000
H2440       H  0.34443027  0.96752829  0.45414443     0.12900
H2441       H  0.44744487  0.47987739  0.40991164     0.26200
H2442       H  0.44766896  0.98606321  0.45422207     0.26200
N2443       N  0.45153444  0.71480699  0.40665768    -0.36600
N2444       N  0.49513552  0.70862637  0.44200761    -0.57100
N2445       N  0.45268360  0.70421708  0.47991930    -0.36600
N2446       N  0.40951676  0.70563652  0.44212007    -0.57100
C2447       C  0.47465891  0.73173133  0.39581634     0.27000
C2448       C  0.42759097  0.73134987  0.39599567     0.27000
C2449       C  0.47619502  0.72329197  0.49069513     0.27000
C2450       C  0.42883132  0.72289658  0.49060868     0.27000
C2451       C  0.51153920  0.70136786  0.42249511     0.35600
C2452       C  0.51167123  0.69756167  0.46069044     0.35600
C2453       C  0.39232224  0.70021054  0.42282483     0.35600
C2454       C  0.39352399  0.69509754  0.46083683     0.35600
C2455       C  0.46541363  0.75966179  0.37802902    -0.21800
C2456       C  0.43546514  0.75969267  0.37825989    -0.21800
C2457       C  0.46723406  0.75374601  0.50882287    -0.21800
C2458       C  0.43726585  0.75357749  0.50872578    -0.21800
C2459       C  0.53840874  0.68345176  0.42865359    -0.22900
C2460       C  0.53869700  0.68186812  0.45297971    -0.22900
C2461       C  0.36555015  0.68397894  0.42908232    -0.22900
C2462       C  0.36624185  0.68084953  0.45324553    -0.22900
C2463       C  0.50353358  0.71797856  0.40024554    -0.18200
C2464       C  0.39925043  0.71742826  0.40076022    -0.18200
C2465       C  0.39984691  0.71322104  0.48375475    -0.18200
C2466       C  0.50530412  0.71442681  0.48384912    -0.18200
H2467       H  0.47884912  0.77721713  0.36586406     0.14700
H2468       H  0.42115167  0.77709560  0.36624608     0.14700
H2469       H  0.48081303  0.77474484  0.52050641     0.14700
H2470       H  0.42330225  0.77433258  0.52033652     0.14700
H2471       H  0.55656924  0.67575419  0.41710536     0.13000
H2472       H  0.55724494  0.67337334  0.46388343     0.12900
H2473       H  0.34675682  0.67913785  0.41776831     0.13000
H2474       H  0.34786061  0.67380628  0.46422630     0.12900
H2475       H  0.45214132  0.68813410  0.41825225     0.26200
H2476       H  0.45295456  0.67868863  0.46638156     0.26200
O2477       O  0.72679003  0.66580042  0.54377409    -0.72900
O2478       O  0.78332302  0.56668353  0.51970032    -0.73900
O2479       O  0.73307220  0.57102036  0.54916496    -0.62500
O2480       O  0.77750281  0.66069359  0.51349291    -0.70900
O2481       O  0.80643562  0.67467822  0.54451372    -0.70500
O2482       O  0.76097551  0.58650233  0.58063526    -0.61700
O2483       O  0.81113319  0.58113268  0.55125515    -0.74200
O2484       O  0.75606542  0.68138771  0.57437381    -0.73000
Cu2485     Cu  0.75408670  0.61587082  0.53045911     1.04600
Cu2486     Cu  0.78449006  0.63161708  0.56380549     1.04300
C2487       C  0.73198431  0.68742308  0.56351840     0.93300
C2488       C  0.80676127  0.55965823  0.53136473     0.92400
C2489       C  0.73983638  0.56502867  0.57069241     0.84600
C2490       C  0.80049821  0.67817677  0.52262298     0.90900
O2491       O  0.80811864  0.80771923  0.63742790    -0.72900
O2492       O  0.76226730  0.90833158  0.60768178    -0.73900
O2493       O  0.81408975  0.90185284  0.63531065    -0.62500
O2494       O  0.75643723  0.81163064  0.60813700    -0.70900
O2495       O  0.73061039  0.81841237  0.64105850    -0.70500
O2496       O  0.78566535  0.91616397  0.66630488    -0.61700
O2497       O  0.73317856  0.91524615  0.63876855    -0.74200
O2498       O  0.78182992  0.82101757  0.66967337    -0.73000
Cu2499     Cu  0.78587408  0.85693261  0.62082845     1.04600
Cu2500     Cu  0.75670380  0.86789450  0.65495438     1.04300
C2501       C  0.80383199  0.80243242  0.65943093     0.93300
C2502       C  0.74090466  0.92799918  0.61862182     0.92400
C2503       C  0.80968463  0.92153273  0.65557785     0.84600
C2504       C  0.73473916  0.80024988  0.62031128     0.90900
C2505       C  0.35315735  0.69900531  0.34544096    -0.05700
C2506       C  0.32688082  0.72241490  0.68562963     0.00200
C2507       C  0.32843661  0.75449544  0.37201217    -0.08400
C2508       C  0.35275746  0.75258045  0.38727247    -0.05700
C2509       C  0.37617796  0.72218051  0.38248713     0.00200
C2510       C  0.37641980  0.69474362  0.36123721    -0.08300
C2511       C  0.39985482  0.65851728  0.35591378     0.62100
H2512       H  0.35301189  0.67747639  0.32934659     0.12800
H2513       H  0.35312487  0.77318494  0.40368526     0.12800
C2514       C  0.30147426  0.78042273  0.71408152     0.62300
F2515       F  0.39244476  0.62962903  0.33677904    -0.22800
F2516       F  0.40390835  0.63201163  0.37526718    -0.20200
F2517       F  0.42570348  0.67888086  0.35066542    -0.19800
F2518       F  0.27886964  0.76046843  0.38323790    -0.19900
F2519       F  0.29530880  0.80961668  0.69614275    -0.20200
F2520       F  0.30735256  0.80675510  0.73449931    -0.22900
C2521       C  0.35294380  0.56419894  0.38610048    -0.05700
C2522       C  0.37234293  0.53288275  0.37474632     0.00200
C2523       C  0.36728268  0.52033842  0.35046521    -0.08400
C2524       C  0.34324115  0.53840149  0.67200162    -0.05700
C2525       C  0.32373389  0.56964837  0.68335753     0.00200
C2526       C  0.32851857  0.58235623  0.37465984    -0.08300
C2527       C  0.30655812  0.61035551  0.38942169     0.62100
H2528       H  0.35689076  0.57390709  0.40453250     0.12800
H2529       H  0.34017243  0.52980756  0.65331371     0.12800
C2530       C  0.38337370  0.98213560  0.33694038     0.62300
F2531       F  0.31397591  0.61297411  0.41318871    -0.22800
F2532       F  0.27967867  0.59000349  0.38762533    -0.20200
F2533       F  0.30087893  0.64855740  0.71585323    -0.19800
F2534       F  0.40110384  0.95599228  0.35092694    -0.19900
F2535       F  0.40015905  0.00262334  0.32040175    -0.20200
F2536       F  0.36588563  0.94773789  0.66117966    -0.22900
C2537       C  0.32671633  0.99697864  0.51141742    -0.05700
C2538       C  0.33485641  0.96005515  0.52512708     0.00200
C2539       C  0.36435920  0.94502793  0.52526259    -0.08400
C2540       C  0.38370430  0.96419662  0.50960552    -0.05700
C2541       C  0.37506655  0.99881089  0.49462369     0.00200
C2542       C  0.34661741  0.01785965  0.49677224    -0.08300
C2543       C  0.33604502  0.05958094  0.48411898     0.62100
H2544       H  0.30439262  0.00931688  0.51190933     0.12800
H2545       H  0.40564500  0.95060282  0.50805598     0.12800
C2546       C  0.37537406  0.90730420  0.54075446     0.62300
F2547       F  0.32529074  0.09184025  0.50059300    -0.22800
F2548       F  0.31392362  0.04724377  0.46852369    -0.20200
F2549       F  0.35885131  0.58250469  0.47223375    -0.19800
F2550       F  0.36033651  0.86759341  0.53560502    -0.19900
F2551       F  0.37176712  0.92066520  0.56431739    -0.20200
F2552       F  0.40459367  0.89753352  0.53732615    -0.22900
C2553       C  0.36079246  0.77153706  0.48530719    -0.05700
C2554       C  0.37525463  0.73629594  0.49677202     0.00200
C2555       C  0.36502765  0.72272292  0.51879071    -0.08400
C2556       C  0.34170295  0.74762251  0.52946099    -0.05700
C2557       C  0.32712515  0.78297789  0.51787686     0.00200
C2558       C  0.33611206  0.79375400  0.49480847    -0.08300
C2559       C  0.32040463  0.82882753  0.48008214     0.62100
H2560       H  0.36887488  0.78082214  0.46829926     0.12800
H2561       H  0.33443767  0.73932115  0.54686606     0.12800
C2562       C  0.37784077  0.68112206  0.53029989     0.62300
F2563       F  0.33338119  0.83341998  0.45835531    -0.22800
F2564       F  0.32048311  0.87124506  0.49183396    -0.20200
F2565       F  0.29213107  0.81530051  0.47574271    -0.19800
F2566       F  0.40693261  0.68738804  0.53534450    -0.19900
F2567       F  0.37492425  0.64307898  0.51505828    -0.20200
F2568       F  0.36394990  0.67263464  0.55119280    -0.22900
C2569       C  0.57344549  0.99997523  0.50912571    -0.05700
C2570       C  0.56682381  0.97024125  0.52703133     0.00200
C2571       C  0.53706136  0.96038508  0.53110864    -0.08400
C2572       C  0.51604853  0.97424470  0.51469390    -0.05700
C2573       C  0.52298568  0.00090364  0.49569865     0.00200
C2574       C  0.55174399  0.01756474  0.49419104    -0.08300
C2575       C  0.56074207  0.05347085  0.47730469     0.62100
H2576       H  0.59586488  0.00933435  0.50663540     0.12800
H2577       H  0.49399406  0.96234681  0.51593634     0.12800
C2578       C  0.52709377  0.93351609  0.55184261     0.62300
F2579       F  0.57356437  0.08936651  0.49009709    -0.22800
F2580       F  0.53914171  0.57015329  0.46371041    -0.20200
F2581       F  0.58075837  0.03461401  0.46143442    -0.19800
F2582       F  0.53568435  0.95554370  0.57285794    -0.19900
F2583       F  0.53870214  0.88972263  0.55026770    -0.20200
F2584       F  0.49716035  0.92983230  0.55244133    -0.22900
C2585       C  0.55987630  0.75386045  0.53179467    -0.05700
C2586       C  0.57139188  0.79229214  0.52136014     0.00200
C2587       C  0.56233145  0.80281386  0.49810583    -0.08400
C2588       C  0.54096263  0.77600553  0.48681574    -0.05700
C2589       C  0.52908261  0.73825644  0.49729311     0.00200
C2590       C  0.53924399  0.72576800  0.51978426    -0.08300
C2591       C  0.52879263  0.68264711  0.53066521     0.62100
H2592       H  0.56731848  0.74583428  0.54934018     0.12800
H2593       H  0.53293950  0.78457024  0.46951081     0.12800
C2594       C  0.57404000  0.84315684  0.48530272     0.62300
F2595       F  0.54486002  0.67263497  0.55059395    -0.22800
F2596       F  0.53143431  0.64588648  0.51447665    -0.20200
F2597       F  0.50003201  0.68793600  0.53709469    -0.19800
F2598       F  0.60327362  0.83656163  0.48072106    -0.19900
F2599       F  0.56990922  0.88284844  0.49901884    -0.20200
F2600       F  0.56012276  0.84896043  0.46384617    -0.22900
C2601       C  0.51698787  0.69331158  0.35947021    -0.05700
C2602       C  0.52463382  0.71807568  0.38039187     0.00200
C2603       C  0.55184133  0.74010634  0.38173734    -0.08400
C2604       C  0.57225332  0.72953023  0.36391078    -0.05700
C2605       C  0.56551147  0.69789582  0.67945926     0.00200
C2606       C  0.53663499  0.68149926  0.67686797    -0.08300
C2607       C  0.52637285  0.65246168  0.65549960     0.62100
H2608       H  0.49569979  0.67805602  0.35830291     0.12800
H2609       H  0.59401695  0.74286942  0.36598349     0.12800
C2610       C  0.56056189  0.77464535  0.40129661     0.62300
F2611       F  0.49683269  0.64438392  0.65615621    -0.22800
F2612       F  0.54054837  0.61049874  0.65472007    -0.20200
F2613       F  0.53167513  0.67488889  0.63504463    -0.19800
F2614       F  0.58309528  0.75671233  0.41443919    -0.19900
F2615       F  0.53796906  0.78712681  0.41627577    -0.20200
F2616       F  0.57000860  0.81395850  0.39129125    -0.22900
C2617       C  0.55885447  0.50774012  0.67674815    -0.05700
C2618       C  0.57830140  0.53871852  0.68799554     0.00200
C2619       C  0.57259024  0.55610040  0.37818706    -0.08400
C2620       C  0.54753462  0.54171967  0.38944279    -0.05700
C2621       C  0.52799059  0.51090823  0.37847106     0.00200
C2622       C  0.53425860  0.49170549  0.68823510    -0.08300
C2623       C  0.51599898  0.45597842  0.67501042     0.62100
H2624       H  0.56283272  0.49599540  0.65859271     0.12800
H2625       H  0.54258325  0.55517824  0.40713410     0.12800
C2626       C  0.59260098  0.58895278  0.39188653     0.62300
F2627       F  0.53392698  0.42339978  0.66385241    -0.22800
F2628       F  0.50156057  0.47464682  0.32375962    -0.20200
F2629       F  0.49792848  0.43335258  0.68976817    -0.19800
F2630       F  0.59282278  0.63047060  0.38125908    -0.19900
F2631       F  0.62097689  0.56574186  0.72682062    -0.20200
F2632       F  0.58384549  0.59718963  0.41505926    -0.22900
C2633       C  0.05073381  0.76327907  0.69705464    -0.05700
C2634       C  0.02633216  0.79143070  0.36991309     0.00200
C2635       C  0.02543978  0.83673004  0.36202910    -0.08400
C2636       C  0.04792870  0.85076714  0.34765943    -0.05700
C2637       C  0.07210425  0.82150736  0.67383131     0.00200
C2638       C  0.07385556  0.77754140  0.68306975    -0.08300
C2639       C  0.09938056  0.74559173  0.67742083     0.62100
H2640       H  0.05151365  0.72976562  0.70441303     0.12800
H2641       H  0.04736215  0.88547215  0.34164927     0.12800
C2642       C  0.00198722  0.87223647  0.36843802     0.62300
F2643       F  0.09606793  0.70338102  0.68705600    -0.22800
F2644       F  0.12481499  0.76428810  0.68636257    -0.20200
F2645       F  0.10173243  0.73876131  0.65315418    -0.19800
F2646       F  0.98184097  0.85782378  0.38428397    -0.19900
F2647       F  0.98752860  0.88407101  0.34806379    -0.20200
F2648       F  0.01481528  0.91084277  0.37854392    -0.22900
C2649       C  0.83159122  0.66086321  0.48894575    -0.05700
C2650       C  0.82316189  0.69323917  0.50672144     0.00200
C2651       C  0.83896670  0.73403880  0.51038495    -0.08400
C2652       C  0.86297426  0.74099645  0.49576007    -0.05700
C2653       C  0.87181979  0.70780147  0.47838129     0.00200
C2654       C  0.85628400  0.66640646  0.47529461    -0.08300
C2655       C  0.86439714  0.62754733  0.45763856     0.62100
H2656       H  0.81953912  0.62935451  0.48654942     0.12800
H2657       H  0.87494218  0.77258179  0.49760866     0.12800
C2658       C  0.82983762  0.77045530  0.52892369     0.62300
F2659       F  0.86096994  0.58625694  0.46788394    -0.22800
F2660       F  0.89285538  0.62944107  0.45022417    -0.20200
F2661       F  0.84608286  0.62819073  0.43819349    -0.19800
F2662       F  0.83339713  0.75407167  0.55127540    -0.19900
F2663       F  0.80096156  0.78228415  0.52549398    -0.20200
F2664       F  0.84614874  0.80965126  0.52775186    -0.22900
C2665       C  0.84271148  0.74281273  0.66379121    -0.05700
C2666       C  0.82649021  0.78003588  0.67379200     0.00200
C2667       C  0.83488314  0.80215044  0.36208979    -0.08400
C2668       C  0.86187932  0.78943796  0.37109857    -0.05700
C2669       C  0.87757430  0.75158975  0.36165018     0.00200
C2670       C  0.86734847  0.72502634  0.67549904    -0.08300
C2671       C  0.88111344  0.67990678  0.66685863     0.62100
H2672       H  0.83559547  0.72719996  0.64704026     0.12800
H2673       H  0.86994736  0.80633632  0.38724596     0.12800
C2674       C  0.81571664  0.83423580  0.37740736     0.62300
F2675       F  0.86451978  0.65835042  0.64925505    -0.22800
F2676       F  0.88359827  0.65083004  0.68536933    -0.20200
F2677       F  0.90836346  0.68703876  0.65789136    -0.19800
F2678       F  0.78940422  0.81365974  0.38112283    -0.19900
F2679       F  0.81107548  0.87502496  0.36679905    -0.20200
F2680       F  0.82802028  0.84436171  0.39941527    -0.22900
C2681       C  0.04907130  0.99117649  0.38924396    -0.05700
C2682       C  0.03083178  0.02438135  0.37943719     0.00200
C2683       C  0.03950240  0.04423602  0.35828084    -0.08400
C2684       C  0.06194714  0.02099934  0.67995468    -0.05700
C2685       C  0.08045910  0.98686306  0.68881217     0.00200
C2686       C  0.07436572  0.97449042  0.37816289    -0.08300
C2687       C  0.09281106  0.93916021  0.39062252     0.62100
H2688       H  0.04263815  0.97691491  0.40566957     0.12800
H2689       H  0.06648705  0.03424007  0.66282829     0.12800
C2690       C  0.02118957  0.07877948  0.68298783     0.62300
F2691       F  0.08178357  0.92945048  0.41245097    -0.22800
F2692       F  0.12059376  0.95546703  0.39427135    -0.20200
F2693       F  0.09389338  0.89858277  0.37726369    -0.19800
F2694       F  0.99886339  0.09475605  0.69745879    -0.19900
F2695       F  0.01385810  0.07320269  0.32561601    -0.20200
F2696       F  0.04024730  0.11436153  0.68066013    -0.22900
C2697       C  0.85800125  0.00816859  0.35843494    -0.05700
C2698       C  0.88001765  0.97766492  0.36556429     0.00200
C2699       C  0.87997372  0.93176085  0.35618946    -0.08400
C2700       C  0.85784327  0.91823455  0.34012628    -0.05700
C2701       C  0.83451055  0.94339909  0.66838192     0.00200
C2702       C  0.83415030  0.98895251  0.67787965    -0.08300
C2703       C  0.80942137  0.02146052  0.67215930     0.62100
H2704       H  0.85727378  0.03823105  0.70059072     0.12800
H2705       H  0.85723234  0.88311859  0.33313991     0.12800
C2706       C  0.90124544  0.89569076  0.36477734     0.62300
F2707       F  0.81418782  0.06527445  0.68157613    -0.22800
F2708       F  0.78382538  0.00611964  0.68136688    -0.20200
F2709       F  0.80644128  0.02355288  0.64789179    -0.19800
F2710       F  0.89664573  0.88952095  0.38850837    -0.19900
F2711       F  0.92957132  0.90830982  0.36176466    -0.20200
F2712       F  0.89797239  0.85417133  0.35244206    -0.22900
C2713       C  0.85804784  0.55439631  0.52037647    -0.05700
C2714       C  0.83114127  0.53266884  0.52029688     0.00200
C2715       C  0.82827005  0.48957064  0.50802223    -0.08400
C2716       C  0.85156358  0.47256691  0.49384637    -0.05700
C2717       C  0.87734314  0.49729414  0.49177494     0.00200
C2718       C  0.88137578  0.53759664  0.50651145    -0.08300
C2719       C  0.90934552  0.56490333  0.50683611     0.62100
H2720       H  0.86012899  0.58656699  0.53049417     0.12800
H2721       H  0.84927111  0.44097194  0.48326569     0.12800
C2722       C  0.80132443  0.46110814  0.51054073     0.62300
F2723       F  0.90631033  0.60636445  0.51946730    -0.22800
F2724       F  0.91752850  0.57419372  0.48415984    -0.20200
F2725       F  0.93127199  0.54056285  0.51754733    -0.19800
F2726       F  0.77746284  0.48279066  0.50093468    -0.19900
F2727       F  0.79645614  0.45495194  0.53425511    -0.20200
F2728       F  0.80432173  0.41831499  0.49918432    -0.22900
C2729       C  0.04105474  0.70104303  0.47662660    -0.05700
C2730       C  0.02279271  0.73594610  0.48575306     0.00200
C2731       C  0.02816418  0.75556916  0.50871362    -0.08400
C2732       C  0.05045036  0.73619507  0.52261577    -0.05700
C2733       C  0.06863224  0.70058478  0.51343735     0.00200
C2734       C  0.06463476  0.68427814  0.48946532    -0.08300
C2735       C  0.08455169  0.64882493  0.47707660     0.62100
H2736       H  0.03668637  0.68733018  0.45885499     0.12800
H2737       H  0.05409305  0.74914419  0.54062123     0.12800
C2738       C  0.01119787  0.79742202  0.51803292     0.62300
F2739       F  0.07539676  0.63726625  0.45424148    -0.22800
F2740       F  0.08525115  0.60924193  0.48937233    -0.20200
F2741       F  0.11224218  0.66603718  0.47550462    -0.19800
F2742       F  0.98255102  0.78653714  0.52159066    -0.19900
F2743       F  0.01231040  0.83141566  0.50189955    -0.20200
F2744       F  0.02251078  0.81475356  0.53929866    -0.22900
C2745       C  0.01682566  0.52385360  0.51558064    -0.05700
C2746       C  0.02409309  0.49836236  0.49488571     0.00200
C2747       C  0.05339228  0.48389028  0.49148765    -0.08400
C2748       C  0.07493034  0.50201184  0.50683735    -0.05700
C2749       C  0.06802164  0.53195192  0.52615407     0.00200
C2750       C  0.03810740  0.54033761  0.53164529    -0.08300
C2751       C  0.02811575  0.56923702  0.55321696     0.62100
H2752       H  0.99432651  0.53409967  0.51804644     0.12800
H2753       H  0.09754909  0.49410752  0.50306594     0.12800
C2754       C  0.06328104  0.45139418  0.47141306     0.62300
F2755       F  0.03728751  0.61374702  0.55168506    -0.22800
F2756       F  0.03914215  0.55092273  0.57357206    -0.20200
F2757       F  0.99815266  0.57062302  0.55517693    -0.19800
F2758       F  0.08038587  0.97901867  0.45459190    -0.19900
F2759       F  0.04006714  0.93675452  0.45647042    -0.20200
F2760       F  0.07922997  0.91895475  0.47791784    -0.22900
O2761       O  0.08892222  0.57885789  0.89104251    -0.72900
O2762       O  0.13684842  0.68431330  0.91302477    -0.73900
O2763       O  0.08607856  0.67313124  0.88371682    -0.62500
O2764       O  0.14158588  0.58813560  0.91907769    -0.70900
O2765       O  0.16663039  0.57823190  0.88594807    -0.70500
O2766       O  0.11596024  0.66653712  0.85340296    -0.61700
O2767       O  0.16633108  0.67578276  0.88232584    -0.74200
O2768       O  0.11417845  0.57188873  0.85803877    -0.73000
Cu2769     Cu  0.11259438  0.63145655  0.90295260     1.04600
Cu2770     Cu  0.14186248  0.62269737  0.86895413     1.04300
C2771       C  0.09181603  0.56196768  0.87006978     0.93300
C2772       C  0.15891032  0.69701461  0.90171656     0.92400
C2773       C  0.09201695  0.68079116  0.86215834     0.84600
C2774       C  0.16287816  0.56940197  0.90753158     0.90900
N2775       N  0.94920715  0.49685117  0.79864998    -0.36600
N2776       N  0.90603294  0.98472344  0.76281602    -0.57100
N2777       N  0.94986487  0.01259792  0.72928395    -0.36600
N2778       N  0.99209933  0.01314096  0.76822560    -0.57100
C2779       C  0.92658799  0.47869850  0.80958709     0.27000
C2780       C  0.97349379  0.48608497  0.81088659     0.27000
C2781       C  0.92912283  0.99711208  0.71391292     0.27000
C2782       C  0.97537054  0.01293856  0.71743540     0.27000
C2783       C  0.88815512  0.49405984  0.78047241     0.35600
C2784       C  0.88932678  0.98893247  0.74319743     0.35600
C2785       C  0.00696804  0.52724288  0.78613314     0.35600
C2786       C  0.00588138  0.03636398  0.75181399     0.35600
C2787       C  0.93636113  0.45524495  0.82886265    -0.21800
C2788       C  0.96620898  0.45955489  0.82957071    -0.21800
C2789       C  0.94119342  0.99115713  0.69156430    -0.21800
C2790       C  0.97050178  0.99926227  0.69398204    -0.21800
C2791       C  0.85960176  0.49882473  0.77286676    -0.22900
C2792       C  0.86034009  0.99227935  0.74953506    -0.22900
C2793       C  0.03020701  0.55553786  0.78259215    -0.22900
C2794       C  0.02916225  0.05965330  0.76201533    -0.22900
C2795       C  0.89746012  0.48920993  0.80430258    -0.18200
C2796       C  0.00106339  0.50493714  0.80711120    -0.18200
C2797       C  0.00261338  0.02618652  0.72741847    -0.19000
C2798       C  0.89978798  0.98769766  0.71960512    -0.18200
H2799       H  0.92321874  0.43860809  0.84158092     0.14700
H2800       H  0.98066996  0.44673714  0.84297875     0.14700
H2801       H  0.93030587  0.97989275  0.67534201     0.14700
H2802       H  0.98626388  0.99541163  0.67997534     0.14700
H2803       H  0.84015942  0.50127777  0.78341600     0.13000
H2804       H  0.84161124  0.99526913  0.73804536     0.12900
H2805       H  0.04665161  0.56629772  0.79531753     0.13000
H2806       H  0.04527108  0.07889593  0.75303926     0.12900
H2807       H  0.94720175  0.52169742  0.78615357     0.26200
H2808       H  0.94655895  0.02419892  0.74671363     0.26200
N2809       N  0.94834677  0.74025427  0.79372414    -0.36600
N2810       N  0.99332386  0.76313451  0.76027283    -0.57100
N2811       N  0.95435271  0.74392949  0.72026376    -0.36600
N2812       N  0.90902221  0.72277589  0.75398693    -0.57100
C2813       C  0.97261302  0.73357616  0.80687965     0.27000
C2814       C  0.92656306  0.71826779  0.80415837     0.27000
C2815       C  0.97684582  0.76164177  0.70859464     0.27000
C2816       C  0.93095618  0.74400970  0.70555626     0.27000
C2817       C  0.00792432  0.77033101  0.78091252     0.35600
C2818       C  0.01061447  0.77760404  0.74303639     0.35600
C2819       C  0.89000023  0.72102725  0.77199262     0.35600
C2820       C  0.89288928  0.72016071  0.73394187     0.35600
C2821       C  0.96599835  0.70721580  0.82582594    -0.21800
C2822       C  0.93680086  0.69840977  0.82434310    -0.21800
C2823       C  0.96811382  0.76983744  0.68564100    -0.21800
C2824       C  0.93908699  0.76018574  0.68400070    -0.21800
C2825       C  0.03430433  0.79061081  0.77684643    -0.22900
C2826       C  0.03598305  0.79537231  0.75291811    -0.22900
C2827       C  0.86190070  0.71789274  0.76337171    -0.22900
C2828       C  0.86388034  0.71412832  0.73945700    -0.22900
C2829       C  0.00043102  0.75119271  0.80249716    -0.18200
C2830       C  0.89766360  0.71557473  0.79584798    -0.18200
C2831       C  0.90198731  0.73327185  0.71137912    -0.18200
C2832       C  0.00407413  0.77530349  0.71847303    -0.18200
H2833       H  0.98061465  0.69575804  0.83947140     0.14700
H2834       H  0.92461950  0.67876540  0.83642495     0.14700
H2835       H  0.98094375  0.78855048  0.00594485     0.14700
H2836       H  0.92578236  0.76913768  0.00162104     0.14700
H2837       H  0.05107348  0.79936728  0.78972705     0.13000
H2838       H  0.05407760  0.80965642  0.74383863     0.12900
H2839       H  0.84192163  0.71683346  0.77322221     0.13000
H2840       H  0.84551400  0.71111731  0.72744843     0.12900
H2841       H  0.94618190  0.76115148  0.77955992     0.26200
H2842       H  0.95499575  0.73222748  0.73737824     0.26200
O2843       O  0.09661292  0.95487405  0.98513182    -0.72900
O2844       O  0.14106720  0.85776765  0.94746533    -0.73900
O2845       O  0.09227770  0.86085921  0.97832019    -0.62500
O2846       O  0.14523386  0.95506414  0.95452201    -0.70900
O2847       O  0.17528980  0.94498603  0.98480037    -0.70500
O2848       O  0.12246616  0.84892154  0.00827947    -0.61700
O2849       O  0.17201075  0.84805246  0.97710382    -0.74200
O2850       O  0.12480349  0.94479064  0.68067407    -0.73000
Cu2851     Cu  0.11803382  0.90754797  0.96521728     1.04600
Cu2852     Cu  0.15016887  0.89639000  0.99745126     1.04300
C2853       C  0.10299105  0.96210459  0.00696467     0.93300
C2854       C  0.16311986  0.83711876  0.95615685     0.92400
C2855       C  0.09804974  0.84245117  0.99782794     0.84600
C2856       C  0.16878492  0.96429782  0.96565935     0.90900
C2857       C  0.67475564  0.70930243  0.94230574     0.86500
C2858       C  0.69017133  0.68388760  0.92173884    -0.53700
C2859       C  0.70681982  0.71037549  0.90827502     0.09500
C2860       C  0.70506986  0.76189053  0.91591848     0.20400
C2861       C  0.69864938  0.73626632  0.95588934    -0.54400
C2862       C  0.71425811  0.76425446  0.94219192     0.09600
C2863       C  0.65655575  0.74614264  0.93071979    -0.54000
C2864       C  0.67214132  0.77407958  0.91689299     0.10100
H2865       H  0.68978106  0.64698579  0.91908477     0.14700
H2866       H  0.71775385  0.78432738  0.90469253     0.00400
H2867       H  0.70054899  0.73876763  0.64268824     0.15000
H2868       H  0.63337970  0.75048673  0.93369373     0.14700
C2869       C  0.72251290  0.53087214  0.91655063     0.86500
C2870       C  0.74132289  0.49397750  0.92718616    -0.53700
C2871       C  0.72650494  0.96597914  0.94303214     0.09500
C2872       C  0.69359855  0.97876006  0.94513961     0.20400
C2873       C  0.69819310  0.50436796  0.90324328    -0.54400
C2874       C  0.68325227  0.97792022  0.91920678     0.09600
C2875       C  0.70786971  0.55576332  0.93755172    -0.54000
C2876       C  0.69166569  0.52896940  0.95106077     0.10100
H2877       H  0.76481404  0.98965075  0.92588417     0.14700
H2878       H  0.68127970  0.95606107  0.95648368     0.00400
H2879       H  0.69416039  0.50630031  0.88438647     0.15000
H2880       H  0.70825676  0.59264666  0.94041165     0.14700
O2881       O  0.66516007  0.66994391  0.97829928    -0.72900
O2882       O  0.62271813  0.57563413  0.01418772    -0.73900
O2883       O  0.67295070  0.57427778  0.98355900    -0.62500
O2884       O  0.61591737  0.66934800  0.00929422    -0.70900
O2885       O  0.58720870  0.65540145  0.97839705    -0.70500
O2886       O  0.64364749  0.55906348  0.95293854    -0.61700
O2887       O  0.59381518  0.56197698  0.98334370    -0.74200
O2888       O  0.63662856  0.65478036  0.94727299    -0.73000
Cu2889     Cu  0.64534153  0.62261851  0.99731985     1.04600
Cu2890     Cu  0.61452511  0.60727219  0.96435070     1.04300
C2891       C  0.65771809  0.67690713  0.95691119     0.93300
C2892       C  0.59974409  0.55770402  0.00521037     0.92400
C2893       C  0.66768859  0.55278231  0.96385149     0.84600
C2894       C  0.59135793  0.67417925  0.99896230     0.90900
O2895       O  0.64125070  0.93028824  0.92113848    -0.72900
O2896       O  0.58615372  0.83780889  0.88996389    -0.73900
O2897       O  0.63667194  0.83301353  0.91843099    -0.62500
O2898       O  0.58876349  0.93411306  0.89337186    -0.70900
O2899       O  0.61362609  0.93017095  0.86005367    -0.70500
O2900       O  0.66548388  0.83048512  0.88719639    -0.61700
O2901       O  0.61423890  0.83415592  0.85834661    -0.74200
O2902       O  0.66609641  0.92907868  0.88771722    -0.73000
Cu2903     Cu  0.61250552  0.88407281  0.90693937     1.04600
Cu2904     Cu  0.64101929  0.88107869  0.87230277     1.04300
C2905       C  0.66229758  0.94450080  0.90893149     0.93300
C2906       C  0.59121800  0.82281595  0.86874372     0.92400
C2907       C  0.65788275  0.81476206  0.90694325     0.84600
C2908       C  0.59170799  0.94527986  0.87207635     0.90900
O2909       O  0.23769630  0.93479367  0.88636230    -0.72900
O2910       O  0.28447229  0.83337808  0.85475604    -0.73900
O2911       O  0.23308763  0.83697435  0.88298372    -0.62500
O2912       O  0.28918353  0.92892566  0.85870292    -0.70900
O2913       O  0.31647551  0.92181645  0.89073613    -0.70500
O2914       O  0.25964452  0.83277856  0.91569292    -0.61700
O2915       O  0.31117943  0.82638564  0.88713510    -0.74200
O2916       O  0.26507253  0.92921844  0.91859218    -0.73000
Cu2917     Cu  0.26005292  0.88368348  0.86965261     1.04600
Cu2918     Cu  0.28889922  0.87735824  0.90422964     1.04300
C2919       C  0.24404404  0.94801458  0.90755832     0.93300
C2920       C  0.30623708  0.81590856  0.86529586     0.92400
C2921       C  0.23741282  0.82079231  0.90336728     0.84600
C2922       C  0.31257572  0.93770121  0.87031719     0.90900
C2923       C  0.22527845  0.98280413  0.92078413     0.86500
C2924       C  0.20919258  0.95965038  0.93996617    -0.53700
C2925       C  0.19150520  0.98764745  0.95324635     0.09500
C2926       C  0.19163242  0.53808902  0.94534362     0.20400
C2927       C  0.20133089  0.50805467  0.90510698    -0.54400
C2928       C  0.18408860  0.53772134  0.91860812     0.09600
C2929       C  0.24135779  0.52015964  0.93254486    -0.54000
C2930       C  0.22457093  0.54956821  0.94630027     0.10100
H2931       H  0.20966641  0.92264220  0.94146531     0.14700
H2932       H  0.17776346  0.56158740  0.95652071     0.00400
H2933       H  0.19931414  0.50409191  0.88599582     0.15000
H2934       H  0.26476357  0.52321693  0.93113146     0.14700
O2935       O  0.30931984  0.60894101  0.98321579    -0.72900
O2936       O  0.25875145  0.70033834  0.95058395    -0.73900
O2937       O  0.30635777  0.70404667  0.98266696    -0.62500
O2938       O  0.26183067  0.60394189  0.95064683    -0.70900
O2939       O  0.22855340  0.60611484  0.97876460    -0.70500
O2940       O  0.27800998  0.70183018  0.01403080    -0.61700
O2941       O  0.22879600  0.70393063  0.98118260    -0.74200
O2942       O  0.27689691  0.60668846  0.01172927    -0.73000
Cu2943     Cu  0.28486809  0.65452246  0.96568910     1.04600
Cu2944     Cu  0.25174584  0.65509920  0.99741050     1.04300
C2945       C  0.30176093  0.59520153  0.00335012     0.93300
C2946       C  0.23550295  0.71551735  0.96048157     0.92400
C2947       C  0.30190837  0.71292136  0.00460253     0.84600
C2948       C  0.23848886  0.58882122  0.95921637     0.90900
C2949       C  0.17778818  0.73261270  0.91400568     0.86500
C2950       C  0.16045576  0.76967907  0.92813753    -0.53700
C2951       C  0.17701464  0.79882525  0.94194391     0.09500
C2952       C  0.21007020  0.78811158  0.94012606     0.20400
C2953       C  0.19929071  0.75962831  0.89950985    -0.54400
C2954       C  0.21620688  0.78910273  0.91322505     0.09600
C2955       C  0.19637925  0.70898412  0.93220974    -0.54000
C2956       C  0.21342543  0.73713935  0.94571721     0.10100
H2957       H  0.13691384  0.77248228  0.92736780     0.14700
H2958       H  0.22383291  0.81145322  0.95130948     0.00400
H2959       H  0.20075927  0.75624516  0.88037656     0.15000
H2960       H  0.19701447  0.67196809  0.93360625     0.14700
N2961       N  0.44844227  0.50043822  0.72892365    -0.36600
N2962       N  0.49351199  0.00231199  0.76721996    -0.57100
N2963       N  0.44991710  0.00947317  0.80240568    -0.36600
N2964       N  0.40593908  0.01164892  0.76625805    -0.57100
C2965       C  0.47305902  0.51144766  0.71772188     0.27000
C2966       C  0.42555679  0.51804672  0.71699925     0.27000
C2967       C  0.47365513  0.02173579  0.81529709     0.27000
C2968       C  0.42624297  0.02260088  0.81500021     0.27000
C2969       C  0.50665033  0.48334619  0.74788942     0.35600
C2970       C  0.50897387  0.99056654  0.78639599     0.35600
C2971       C  0.38911990  0.49978350  0.74641457     0.35600
C2972       C  0.39001724  0.99917958  0.78479704     0.35600
C2973       C  0.46578846  0.53570081  0.69801155    -0.21800
C2974       C  0.43575077  0.53947593  0.69743054    -0.21800
C2975       C  0.46489993  0.04399052  0.83630244    -0.21800
C2976       C  0.43485551  0.04409325  0.83621449    -0.21800
C2977       C  0.53135941  0.45985512  0.75495369    -0.22900
C2978       C  0.53326745  0.96483711  0.77956910    -0.22900
C2979       C  0.36307536  0.48095200  0.75277967    -0.22900
C2980       C  0.36443129  0.97923537  0.77673369    -0.22900
C2981       C  0.50149921  0.49848323  0.72499401    -0.18200
C2982       C  0.39599841  0.51328810  0.72349625    -0.18200
C2983       C  0.39763307  0.00956118  0.80875792    -0.18200
C2984       C  0.50239625  0.00721115  0.80957857    -0.18200
H2985       H  0.47985612  0.55083182  0.01903110     0.14700
H2986       H  0.42235467  0.55777650  0.01816582     0.14700
H2987       H  0.47868775  0.05684806  0.85062652     0.14700
H2988       H  0.42095484  0.05711256  0.85039434     0.14700
H2989       H  0.54798499  0.44423129  0.74368863     0.13000
H2990       H  0.55001456  0.95102071  0.79081757     0.12900
H2991       H  0.34566234  0.46948251  0.74108538     0.13000
H2992       H  0.34718345  0.96601669  0.78718609     0.12900
H2993       H  0.44725811  0.47939649  0.74323675     0.26200
H2994       H  0.44966788  0.98674525  0.78766757     0.26200
N2995       N  0.45097841  0.71274183  0.74106257    -0.36600
N2996       N  0.49403235  0.70971561  0.77714384    -0.57100
N2997       N  0.45089188  0.70366498  0.81455879    -0.36600
N2998       N  0.40841599  0.70258937  0.77613163    -0.57100
C2999       C  0.47399526  0.73070524  0.73047584     0.27000
C3000       C  0.42690099  0.72746159  0.72983909     0.27000
C3001       C  0.47398299  0.72370688  0.82547642     0.27000
C3002       C  0.42671256  0.72233916  0.82469536     0.27000
C3003       C  0.51096277  0.70297432  0.75789910     0.35600
C3004       C  0.51014567  0.69851041  0.79604250     0.35600
C3005       C  0.39168540  0.69570805  0.75665865     0.35600
C3006       C  0.39206202  0.69290759  0.79480183     0.35600
C3007       C  0.46452722  0.75733800  0.71222831    -0.21800
C3008       C  0.43458850  0.75562967  0.71196735    -0.21800
C3009       C  0.46443044  0.75481535  0.84308655    -0.21800
C3010       C  0.43451956  0.75403228  0.84255563    -0.21800
C3011       C  0.53781116  0.68545444  0.76443133    -0.22900
C3012       C  0.53746352  0.68341561  0.78872818    -0.22900
C3013       C  0.36492281  0.67912708  0.76281094    -0.22900
C3014       C  0.36502878  0.67788693  0.78706491    -0.22900
C3015       C  0.50311005  0.71869822  0.73543861    -0.18200
C3016       C  0.39864514  0.71269730  0.73452271    -0.18200
C3017       C  0.39795728  0.71181445  0.81763714    -0.18200
C3018       C  0.50324938  0.71531220  0.81910267    -0.18200
H3019       H  0.47784426  0.77521762  0.70010926     0.14700
H3020       H  0.42019370  0.77190956  0.69959137     0.14700
H3021       H  0.47758652  0.77667577  0.85467987     0.14700
H3022       H  0.42017899  0.77506015  0.85371707     0.14700
H3023       H  0.55625507  0.67777521  0.75315759     0.13000
H3024       H  0.55576905  0.67499293  0.79991169     0.12900
H3025       H  0.34643763  0.67279548  0.75129963     0.13000
H3026       H  0.34646070  0.67122077  0.79791166     0.12900
H3027       H  0.45189390  0.68666175  0.75299686     0.26200
H3028       H  0.45166664  0.67763972  0.80128309     0.26200
O3029       O  0.72620221  0.66525109  0.87569232    -0.72900
O3030       O  0.78295207  0.56673700  0.85211269    -0.73900
O3031       O  0.73254682  0.56996489  0.88100181    -0.62500
O3032       O  0.77784760  0.66068147  0.84612934    -0.70900
O3033       O  0.80595116  0.67456813  0.87764400    -0.70500
O3034       O  0.76001671  0.58547981  0.91271749    -0.61700
O3035       O  0.81026656  0.58103164  0.88399080    -0.74200
O3036       O  0.75484704  0.68059606  0.90672483    -0.73000
Cu3037     Cu  0.75377039  0.61556972  0.86264370     1.04600
Cu3038     Cu  0.78353945  0.63115532  0.89638942     1.04300
C3039       C  0.73099191  0.68665874  0.89555368     0.93300
C3040       C  0.80615532  0.55972670  0.86402481     0.92400
C3041       C  0.73934156  0.56338207  0.90248760     0.84600
C3042       C  0.80081070  0.67776302  0.85561679     0.90900
O3043       O  0.80870638  0.80442920  0.96911883    -0.72900
O3044       O  0.76263522  0.90728442  0.94196049    -0.73900
O3045       O  0.81450660  0.89915033  0.96998183    -0.62500
O3046       O  0.75676146  0.81012822  0.94036348    -0.70900
O3047       O  0.73093213  0.81515405  0.97330978    -0.70500
O3048       O  0.78612602  0.90934284  0.00133873    -0.61700
O3049       O  0.73371889  0.91242577  0.97317226    -0.74200
O3050       O  0.78211784  0.81398850  0.00139465    -0.73000
Cu3051     Cu  0.78631246  0.85500649  0.95403072     1.04600
Cu3052     Cu  0.75711410  0.86289263  0.98827618     1.04300
C3053       C  0.80422127  0.79651489  0.99078447     0.93300
C3054       C  0.74127782  0.92630601  0.95316830     0.92400
C3055       C  0.81007914  0.91622514  0.99085953     0.84600
C3056       C  0.73511237  0.79788529  0.95242851     0.90900
C3057       C  0.35136633  0.69493483  0.67975895    -0.05700
C3058       C  0.32776646  0.72327666  0.01954242     0.00200
C3059       C  0.32696505  0.74949955  0.70702323    -0.08400
C3060       C  0.35171402  0.74759068  0.72183591    -0.05700
C3061       C  0.37527602  0.71775142  0.71647051     0.00200
C3062       C  0.37511557  0.69078309  0.69507647    -0.08300
C3063       C  0.39882734  0.65551061  0.68892589     0.62100
H3064       H  0.35100565  0.67384255  0.66352247     0.12800
H3065       H  0.35237839  0.76782341  0.73835893     0.12800
C3066       C  0.30253524  0.78305907  0.04708074     0.62300
F3067       F  0.39100003  0.62661723  0.66990089    -0.22800
F3068       F  0.40423858  0.62883982  0.70801533    -0.20200
F3069       F  0.42401664  0.67704762  0.68299099    -0.19800
F3070       F  0.27733000  0.75460215  0.71823049    -0.19900
F3071       F  0.29585737  0.81036655  0.02845485    -0.20200
F3072       F  0.30872769  0.81134906  0.06674588    -0.22900
C3073       C  0.35172209  0.56174130  0.71961478    -0.05700
C3074       C  0.37125268  0.53035485  0.70846979     0.00200
C3075       C  0.36549577  0.51579824  0.68457149    -0.08400
C3076       C  0.34285734  0.53894996  0.00596023    -0.05700
C3077       C  0.32308278  0.56915385  0.01768919     0.00200
C3078       C  0.32682986  0.57842476  0.70817627    -0.08300
C3079       C  0.30398134  0.60429182  0.72298292     0.62100
H3080       H  0.35574963  0.57231503  0.73792779     0.12800
H3081       H  0.33997263  0.53138920  0.98715408     0.12800
C3082       C  0.38525897  0.97851595  0.67154303     0.62300
F3083       F  0.31105084  0.60635140  0.74682698    -0.22800
F3084       F  0.27775639  0.58201697  0.72061225    -0.20200
F3085       F  0.30157881  0.64892612  0.04993641    -0.19800
F3086       F  0.40304660  0.95443283  0.68646771    -0.19900
F3087       F  0.40201099  0.99589955  0.65401826    -0.20200
F3088       F  0.36005227  0.94709096  0.99718852    -0.22900
C3089       C  0.32782781  0.99848321  0.84398651    -0.05700
C3090       C  0.33596312  0.96340375  0.85895142     0.00200
C3091       C  0.36570505  0.94960854  0.86005180    -0.08400
C3092       C  0.38528459  0.96781672  0.84418163    -0.05700
C3093       C  0.37667180  0.00040951  0.82801797     0.00200
C3094       C  0.34793672  0.01862973  0.82919059    -0.08300
C3095       C  0.33731596  0.05878399  0.81529051     0.62100
H3096       H  0.30535338  0.01006115  0.84366491     0.12800
H3097       H  0.40742171  0.95485786  0.84340036     0.12800
C3098       C  0.37679592  0.91392490  0.87674665     0.62300
F3099       F  0.32473716  0.09143089  0.83063195    -0.22800
F3100       F  0.31661542  0.04407713  0.79891064    -0.20200
F3101       F  0.35848657  0.58227649  0.80414999    -0.19800
F3102       F  0.36288836  0.87296823  0.87199243    -0.19900
F3103       F  0.37182213  0.92895509  0.89991042    -0.20200
F3104       F  0.40636084  0.90572792  0.87446994    -0.22900
C3105       C  0.35951108  0.77100769  0.81866390    -0.05700
C3106       C  0.37328678  0.73529934  0.83026974     0.00200
C3107       C  0.36353678  0.72360453  0.85277428    -0.08400
C3108       C  0.34099444  0.75012314  0.86347840    -0.05700
C3109       C  0.32721799  0.78608358  0.85184200     0.00200
C3110       C  0.33616405  0.79600965  0.82865086    -0.08300
C3111       C  0.32210294  0.83351473  0.81447499     0.62100
H3112       H  0.36744285  0.77912655  0.80142062     0.12800
H3113       H  0.33380427  0.74282222  0.88104924     0.12800
C3114       C  0.37607283  0.68250757  0.86493834     0.62300
F3115       F  0.33554009  0.83812487  0.79293698    -0.22800
F3116       F  0.32385504  0.87509594  0.82693898    -0.20200
F3117       F  0.29333674  0.82331566  0.80981967    -0.19800
F3118       F  0.40546954  0.68755261  0.86900692    -0.19900
F3119       F  0.37174950  0.64342523  0.85072764    -0.20200
F3120       F  0.36299359  0.67671736  0.88649713    -0.22900
C3121       C  0.57521085  0.00028982  0.84222690    -0.05700
C3122       C  0.56799880  0.97145939  0.86037781     0.00200
C3123       C  0.53809676  0.96252490  0.86434359    -0.08400
C3124       C  0.51737325  0.97720522  0.84793124    -0.05700
C3125       C  0.52481465  0.00304230  0.82875720     0.00200
C3126       C  0.55393108  0.01809930  0.82700907    -0.08300
C3127       C  0.56384677  0.05208490  0.80940693     0.62100
H3128       H  0.59781234  0.00851134  0.83966441     0.12800
H3129       H  0.49513797  0.96616122  0.84918809     0.12800
C3130       C  0.52767911  0.93514562  0.88474142     0.62300
F3131       F  0.57822068  0.08742449  0.82141022    -0.22800
F3132       F  0.54027596  0.56932661  0.79652422    -0.20200
F3133       F  0.58285526  0.03058823  0.79351869    -0.19800
F3134       F  0.53624397  0.95618967  0.90600910    -0.19900
F3135       F  0.53892402  0.89115981  0.88276535    -0.20200
F3136       F  0.49770774  0.93199739  0.88512302    -0.22900
C3137       C  0.55768473  0.75672260  0.86673478    -0.05700
C3138       C  0.56975457  0.79391635  0.85560276     0.00200
C3139       C  0.56031077  0.80399827  0.83240503    -0.08400
C3140       C  0.53849957  0.77737370  0.82165255    -0.05700
C3141       C  0.52655629  0.74016132  0.83258813     0.00200
C3142       C  0.53649805  0.72884831  0.85534211    -0.08300
C3143       C  0.52530191  0.68722945  0.86721617     0.62100
H3144       H  0.56520244  0.74944315  0.88436187     0.12800
H3145       H  0.53036167  0.78540256  0.80430135     0.12800
C3146       C  0.57219190  0.84347709  0.81903760     0.62300
F3147       F  0.54055502  0.67912595  0.88782020    -0.22800
F3148       F  0.52819408  0.64887570  0.85210753    -0.20200
F3149       F  0.49638325  0.69361321  0.87292430    -0.19800
F3150       F  0.60123860  0.83579308  0.81410191    -0.19900
F3151       F  0.56883583  0.88375127  0.83242752    -0.20200
F3152       F  0.55787269  0.84891411  0.79770925    -0.22900
C3153       C  0.51705163  0.69063803  0.69540100    -0.05700
C3154       C  0.52438955  0.71764346  0.71563523     0.00200
C3155       C  0.55156370  0.73991032  0.71651161    -0.08400
C3156       C  0.57200985  0.72827627  0.69879129    -0.05700
C3157       C  0.56682466  0.69635220  0.01256326     0.00200
C3158       C  0.53764046  0.68150125  0.00958104    -0.08300
C3159       C  0.52709914  0.65381874  0.98785398     0.62100
H3160       H  0.49593008  0.67480253  0.69472981     0.12800
H3161       H  0.59365458  0.74222312  0.70045435     0.12800
C3162       C  0.56020803  0.77574641  0.73546687     0.62300
F3163       F  0.49725442  0.64861209  0.98782510    -0.22800
F3164       F  0.53972946  0.61064219  0.98719706    -0.20200
F3165       F  0.53395678  0.67599514  0.96763481    -0.19800
F3166       F  0.58263283  0.75872345  0.74904960    -0.19900
F3167       F  0.53750887  0.78923932  0.75013602    -0.20200
F3168       F  0.56978755  0.81426692  0.72477452    -0.22900
C3169       C  0.55819929  0.50515931  0.00966065    -0.05700
C3170       C  0.57772230  0.53671685  0.02039461     0.00200
C3171       C  0.57307261  0.55371711  0.71190631    -0.08400
C3172       C  0.54739972  0.54026181  0.72259708    -0.05700
C3173       C  0.52773819  0.51006448  0.71120626     0.00200
C3174       C  0.53349435  0.49013390  0.02146322    -0.08300
C3175       C  0.51565515  0.45276320  0.00907904     0.62100
H3176       H  0.56230104  0.49192578  0.99176307     0.12800
H3177       H  0.54216642  0.55374375  0.74022818     0.12800
C3178       C  0.59343064  0.58515920  0.72617236     0.62300
F3179       F  0.53378359  0.41643150  0.00227678    -0.22800
F3180       F  0.49937101  0.47685642  0.65804658    -0.20200
F3181       F  0.49432316  0.43597359  0.02317622    -0.19800
F3182       F  0.59442112  0.62726471  0.71618871    -0.19900
F3183       F  0.62011737  0.56424038  0.05938363    -0.20200
F3184       F  0.58451919  0.59249868  0.74937211    -0.22900
C3185       C  0.05103855  0.75824946  0.02913386    -0.05700
C3186       C  0.02657922  0.79208298  0.70228013     0.00200
C3187       C  0.02498045  0.83603581  0.69270566    -0.08400
C3188       C  0.04744274  0.84918739  0.67812594    -0.05700
C3189       C  0.07427141  0.82046837  0.01010884     0.00200
C3190       C  0.07498393  0.77458586  0.01681012    -0.08300
C3191       C  0.10082940  0.74348013  0.01101806     0.62100
H3192       H  0.05096085  0.72316364  0.03445520     0.12800
H3193       H  0.04646282  0.88305163  0.67106171     0.12800
C3194       C  0.00077185  0.87111728  0.69733301     0.62300
F3195       F  0.09633709  0.69920660  0.01766640    -0.22800
F3196       F  0.12520119  0.75991717  0.02285095    -0.20200
F3197       F  0.10584428  0.74210377  0.98693719    -0.19800
F3198       F  0.98074522  0.85834156  0.71366481    -0.19900
F3199       F  0.98643026  0.87877730  0.67628011    -0.20200
F3200       F  0.01266734  0.91176788  0.70580164    -0.22900
C3201       C  0.83205140  0.65960451  0.82198526    -0.05700
C3202       C  0.82436716  0.69171780  0.84010729     0.00200
C3203       C  0.84171960  0.73074408  0.84453189    -0.08400
C3204       C  0.86634668  0.73621692  0.83032439    -0.05700
C3205       C  0.87423864  0.70348049  0.81240941     0.00200
C3206       C  0.85710500  0.66380358  0.80854960    -0.08300
C3207       C  0.86357658  0.62543490  0.79019090     0.62100
H3208       H  0.81895500  0.62930079  0.81899529     0.12800
H3209       H  0.87938260  0.76662288  0.83275736     0.12800
C3210       C  0.83354524  0.76718916  0.86334359     0.62300
F3211       F  0.86022593  0.58408355  0.80028841    -0.22800
F3212       F  0.89147925  0.62648181  0.78145046    -0.20200
F3213       F  0.84393936  0.62732222  0.77164757    -0.19800
F3214       F  0.83681207  0.75001342  0.88554409    -0.19900
F3215       F  0.80495634  0.78086905  0.86011799    -0.20200
F3216       F  0.85078817  0.80541748  0.86235230    -0.22900
C3217       C  0.84505098  0.73945931  0.99284722    -0.05700
C3218       C  0.82683502  0.77239119  0.00447130     0.00200
C3219       C  0.83502603  0.79965736  0.69621744    -0.08400
C3220       C  0.86190831  0.78687258  0.70540866    -0.05700
C3221       C  0.87795795  0.74951136  0.69584973     0.00200
C3222       C  0.86983096  0.72120014  0.00419817    -0.08300
C3223       C  0.88531110  0.67912233  0.99346197     0.62100
H3224       H  0.83931199  0.72733105  0.97506884     0.12800
H3225       H  0.86982245  0.80366996  0.72162713     0.12800
C3226       C  0.81603877  0.83256376  0.71125029     0.62300
F3227       F  0.87115160  0.66201764  0.97332626    -0.22800
F3228       F  0.88617166  0.64517321  0.00965632    -0.20200
F3229       F  0.91332293  0.68936942  0.98734022    -0.19800
F3230       F  0.78968412  0.81245346  0.71533879    -0.19900
F3231       F  0.81145074  0.87281027  0.70016199    -0.20200
F3232       F  0.82850500  0.84372435  0.73308720    -0.22900
C3233       C  0.04974079  0.98581275  0.72336615    -0.05700
C3234       C  0.03019356  0.01758878  0.71390957     0.00200
C3235       C  0.03758362  0.03827589  0.69268106    -0.08400
C3236       C  0.06267621  0.01918369  0.01233874    -0.05700
C3237       C  0.08147914  0.98698713  0.02251082     0.00200
C3238       C  0.07525140  0.97133006  0.71181359    -0.08300
C3239       C  0.09546846  0.93813754  0.72410466     0.62100
H3240       H  0.04422821  0.97097492  0.73987912     0.12800
H3241       H  0.06739934  0.03051809  0.99483709     0.12800
C3242       C  0.02012885  0.07318120  0.01189208     0.62300
F3243       F  0.08621129  0.92939415  0.74661977    -0.22800
F3244       F  0.12292039  0.95648797  0.72632113    -0.20200
F3245       F  0.09680118  0.89677996  0.71136395    -0.19800
F3246       F  0.99669571  0.08953568  0.02498556    -0.19900
F3247       F  0.00976839  0.06654399  0.66095509    -0.20200
F3248       F  0.03798994  0.10974644  0.00820691    -0.22900
C3249       C  0.85720911  0.00354893  0.69298115    -0.05700
C3250       C  0.87914056  0.97286184  0.70014027     0.00200
C3251       C  0.87954493  0.92732239  0.69024717    -0.08400
C3252       C  0.85798001  0.91433443  0.67359703    -0.05700
C3253       C  0.83443519  0.93785403  0.00438298     0.00200
C3254       C  0.83736057  0.98560296  0.00839198    -0.08300
C3255       C  0.81656953  0.01842847  0.99678313     0.62100
H3256       H  0.86216056  0.03854571  0.02727218     0.12800
H3257       H  0.85762818  0.87947306  0.66621956     0.12800
C3258       C  0.90050055  0.89089038  0.69895713     0.62300
F3259       F  0.82360748  0.06362465  0.00210217    -0.22800
F3260       F  0.78863092  0.01146907  0.00447547    -0.20200
F3261       F  0.81743662  0.01083407  0.97248752    -0.19800
F3262       F  0.89527098  0.88424132  0.72255214    -0.19900
F3263       F  0.92896944  0.90313263  0.69651806    -0.20200
F3264       F  0.89741743  0.84973848  0.68628199    -0.22900
C3265       C  0.85748442  0.55501735  0.85391168    -0.05700
C3266       C  0.83064852  0.53318466  0.85312209     0.00200
C3267       C  0.82789975  0.49093185  0.84007547    -0.08400
C3268       C  0.85145751  0.47477399  0.82601873    -0.05700
C3269       C  0.87703742  0.50014807  0.82436217     0.00200
C3270       C  0.88088374  0.53957751  0.83983169    -0.08300
C3271       C  0.90850888  0.56778489  0.84064435     0.62100
H3272       H  0.85933952  0.58656627  0.86459599     0.12800
H3273       H  0.84936075  0.44374211  0.81495122     0.12800
C3274       C  0.80060718  0.46281970  0.84132228     0.62300
F3275       F  0.90521478  0.60785975  0.85444963    -0.22800
F3276       F  0.91610931  0.57976229  0.81824379    -0.20200
F3277       F  0.93094660  0.54310887  0.85041960    -0.19800
F3278       F  0.77757658  0.48503951  0.83078971    -0.19900
F3279       F  0.79410304  0.45635486  0.86473327    -0.20200
F3280       F  0.80404329  0.42016526  0.82990690    -0.22900
C3281       C  0.04355106  0.70364724  0.80915347    -0.05700
C3282       C  0.02491695  0.73796363  0.81830588     0.00200
C3283       C  0.02986691  0.75736425  0.84135056    -0.08400
C3284       C  0.05204677  0.73811058  0.85539590    -0.05700
C3285       C  0.07044827  0.70268965  0.84629640     0.00200
C3286       C  0.06692997  0.68679036  0.82218945    -0.08300
C3287       C  0.08697397  0.65140706  0.80988426     0.62100
H3288       H  0.03943349  0.69011696  0.79130814     0.12800
H3289       H  0.05531242  0.75083305  0.87348790     0.12800
C3290       C  0.01238193  0.79869201  0.85062416     0.62300
F3291       F  0.07845606  0.64080301  0.78677683    -0.22800
F3292       F  0.08695386  0.61136882  0.82179743    -0.20200
F3293       F  0.11484621  0.66815914  0.80902045    -0.19800
F3294       F  0.98386564  0.78686552  0.85406406    -0.19900
F3295       F  0.01312748  0.83274198  0.83449409    -0.20200
F3296       F  0.02342200  0.81635313  0.87191646    -0.22900
C3297       C  0.01633563  0.53139566  0.84735628    -0.05700
C3298       C  0.02328603  0.50615419  0.82652178     0.00200
C3299       C  0.05207476  0.48924948  0.82344883    -0.08400
C3300       C  0.07394969  0.50578838  0.83899119    -0.05700
C3301       C  0.06755199  0.53555586  0.85853928     0.00200
C3302       C  0.03774308  0.54520614  0.86395539    -0.08300
C3303       C  0.02805071  0.57223427  0.88620005     0.62100
H3304       H  0.99404908  0.54290402  0.84975370     0.12800
H3305       H  0.09638597  0.49632092  0.83538919     0.12800
C3306       C  0.06087070  0.45461155  0.80397971     0.62300
F3307       F  0.03749561  0.61678809  0.88577947    -0.22800
F3308       F  0.03906403  0.55177408  0.90597577    -0.20200
F3309       F  0.99809749  0.57377308  0.88828149    -0.19800
F3310       F  0.07824238  0.97532527  0.79044942    -0.19900
F3311       F  0.03793425  0.93347908  0.79345409    -0.20200
F3312       F  0.07726821  0.91711929  0.81498528    -0.22900
loop_ 
_geom_bond_atom_site_label_1 
_geom_bond_atom_site_label_2 
_geom_bond_distance 
_geom_bond_site_symmetry_2 
_ccdc_geom_bond_type 
O1           Cu9   1.976       .  S
O1           C11   1.269       .  A
O2           Cu9   1.971       .  S
O2           C12   1.273       .  A
O3           Cu9   2.051       .  S
O3           C13   1.284       .  A
O4           Cu9   2.055       .  S
O4           C14   1.283       .  A
O5          Cu10   1.993       .  S
O5           C14   1.275       .  A
O6          Cu10   1.975       .  S
O6           C13   1.270       .  A
O7          Cu10   2.041       .  S
O7           C12   1.282       .  A
O8          Cu10   2.035       .  S
O8           C11   1.284       .  A
Cu9         Cu10   2.362       .  S
C11         C541   1.491       .  S
C12         C189   1.502       .  S
C13         C525   1.489       .  S
C14         C168   1.488       .  S
N15          C20   1.351       .  A
N15          C19   1.345       .  A
N15          H47   1.041   1_565  S
N16          C24   1.356       .  A
N16        C1679   1.359       .  A
N17          C22   1.360       .  A
N17          C21   1.355       .  A
N17          H48   1.039       .  S
N18          C26   1.346   1_655  A
N18        C1681   1.347   1_655  A
C19          C27   1.385       .  A
C19          C35   1.406       .  A
C20          C36   1.415   1_665  A
C20          C28   1.389       .  A
C21          C29   1.389       .  A
C21          C38   1.426       .  A
C22          C37   1.424   1_655  A
C22          C30   1.385       .  A
C23        N1672   1.358       .  A
C23          C35   1.426       .  A
C23          C31   1.388   1_565  A
C24          C38   1.424       .  A
C24          C32   1.386       .  A
C25        N1674   1.347   1_455  A
C25          C33   1.384       .  A
C25          C36   1.411       .  A
C26          C34   1.385       .  A
C26          C37   1.405       .  A
C27          C28   1.384       .  A
C27          H39   1.082       .  S
C28          H40   1.082       .  S
C29          C30   1.379       .  A
C29          H41   1.082       .  S
C30          H42   1.080       .  S
C31        C1688   1.376       .  A
C31          H43   1.080       .  S
C32        C1687   1.375       .  A
C32          H44   1.081       .  S
C33        C1690   1.375       .  A
C33          H45   1.079       .  S
C34        C1689   1.374       .  A
C34          H46   1.082       .  S
C35         C509   1.501   1_565  S
C36         C538   1.494       .  S
C37         C474   1.503       .  S
C38         C490   1.502       .  S
N49          C54   1.354       .  A
N49          C53   1.356       .  A
N49          H81   1.034       .  S
N50          C57   1.352   1_655  A
N50          C58   1.350   1_655  A
N51          C56   1.357       .  A
N51          C55   1.356       .  A
N51          H82   1.039       .  S
N52          C59   1.354       .  A
N52          C60   1.353       .  A
C53          C61   1.388       .  A
C53          C69   1.416   1_655  A
C54          C70   1.412       .  A
C54          C62   1.383       .  A
C55          C63   1.387       .  A
C55          C72   1.420   1_655  A
C56          C71   1.420       .  A
C56          C64   1.387       .  A
C57          C69   1.411       .  A
C57          C65   1.385       .  A
C58          C72   1.415       .  A
C58          C66   1.389       .  A
C59          C67   1.382       .  A
C59          C70   1.412       .  A
C60          C68   1.390       .  A
C60          C71   1.422       .  A
C61          C62   1.375       .  A
C61          H73   1.082       .  S
C62          H74   1.079       .  S
C63          C64   1.371       .  A
C63        H1179   1.082       .  S
C64        H1180   1.082       .  S
C65          C66   1.369       .  A
C65          H77   1.083       .  S
C66          H78   1.082       .  S
C67          C68   1.358       .  A
C67          H79   1.081       .  S
C68          H80   1.083       .  S
C69         C522   1.494       .  S
C70         C445   1.495       .  S
C71         C461   1.497       .  S
C72         C426   1.487       .  S
H75         C615   1.081       .  S
H76         C616   1.081       .  S
O83         Cu91   2.003       .  S
O83          C93   1.277       .  A
O84         Cu91   2.023       .  S
O84          C94   1.281       .  A
O85         Cu91   1.997       .  S
O85          C95   1.276       .  A
O86         Cu91   2.003       .  S
O86          C96   1.276       .  A
O87         Cu92   2.010       .  S
O87          C96   1.277       .  A
O88         Cu92   2.025       .  S
O88          C95   1.280       .  A
O89         Cu92   2.029       .  S
O89          C94   1.277       .  A
O90       Cu1196   2.014   1_554  S
O90        C1197   1.278       .  A
Cu91        Cu92   2.371       .  S
Cu92        O642   2.012       .  S
C93         O642   1.278       .  A
C93         C477   1.486       .  S
C94         C191   1.485       .  S
C95         C429   1.478       .  S
C96         C165   1.462       .  S
C97         C131   1.518       .  S
C97          C98   1.526       .  S
C97         C103   1.526       .  S
C97         C101   1.544       .  S
C98         H105   1.083       .  S
C98          C99   1.361       .  D
C99         C279   1.476       .  S
C99         C100   1.546       .  S
C100        C104   1.552       .  S
C100        C102   1.541       .  S
C100        H106   1.111       .  S
C101        H659   1.086       .  S
C101        C102   1.369       .  D
C102        C296   1.478       .  S
C103        H108   1.087       .  S
C103        C104   1.373       .  D
C104        C147   1.482       .  S
H107       C1205   1.086       .  S
C109        C281   1.498       .  S
C109        C110   1.516   1_545  S
C109        C115   1.522       .  S
C109        C113   1.545       .  S
C110       H1773   1.087       .  S
C110       C1767   1.361       .  D
C111        C294   1.471       .  S
C111        C112   1.560       .  S
C111       C1766   1.361       .  D
C112        C114   1.537       .  S
C112       C1772   1.549       .  S
C112        H118   1.111       .  S
C113        H119   1.086       .  S
C113       C1770   1.373   1_545  D
C114        C145   1.481       .  S
C114       C1769   1.371       .  D
C115        H120   1.083       .  S
C115        C116   1.357       .  D
C116        C133   1.467       .  S
C116       C1768   1.544   1_545  S
H117       C1766   1.087       .  S
O121       Cu129   2.020       .  S
O121        C131   1.279       .  A
O122       Cu129   2.015       .  S
O122        C132   1.278       .  A
O123       Cu129   2.010       .  S
O123        C133   1.276       .  A
O124       Cu129   1.994       .  S
O124        C134   1.277       .  A
O125       Cu130   2.006       .  S
O125        C134   1.276       .  A
O126       Cu130   2.011       .  S
O126        C133   1.278       .  A
O127       Cu130   2.008       .  S
O127        C132   1.278       .  A
O128       Cu130   2.026       .  S
O128        C131   1.280       .  A
Cu129      Cu130   2.366       .  S
C132        C410   1.493       .  S
C134        C397   1.486       .  S
O135       Cu143   2.046       .  S
O135        C145   1.282       .  A
O136       Cu143   2.036       .  S
O136        C146   1.282       .  A
O137       Cu143   1.979       .  S
O137        C147   1.274       .  A
O138       Cu143   1.997       .  S
O138        C148   1.273       .  A
O139       Cu144   2.046       .  S
O139        C148   1.285       .  A
O140       Cu144   2.057       .  S
O140        C147   1.283       .  A
O141       Cu144   1.981       .  S
O141        C146   1.271       .  A
O142       Cu144   1.990       .  S
O142        C145   1.274       .  A
Cu143      Cu144   2.367       .  S
C146        C378   1.479       .  S
C148        C362   1.496       .  S
O149       Cu157   2.012       .  S
O149        C159   1.277       .  A
O150       Cu157   2.006       .  S
O150        C160   1.276       .  A
O151       Cu157   2.029       .  S
O151        C161   1.280       .  A
O152       Cu157   2.015       .  S
O152        C162   1.279       .  A
O153       Cu158   2.004       .  S
O153        C162   1.276       .  A
O154       Cu158   2.010       .  S
O154        C161   1.276       .  A
O155       Cu158   2.012       .  S
O155        C160   1.279       .  A
O156       Cu158   1.998       .  S
O156        C159   1.278       .  A
Cu157      Cu158   2.370       .  S
C159        C163   1.502       .  S
C160        C349   1.487       .  S
C161        C194   1.480       .  S
C162        C330   1.485       .  S
C163        C164   1.513       .  S
C163       C1825   1.521       .  S
C163       C1823   1.539       .  S
C164        H171   1.090       .  S
C164        C165   1.354       .  D
C165       C1822   1.552       .  S
C166        C170   1.557       .  S
C166        C168   1.548       .  S
C166       C1821   1.551   1_545  S
C166        H172   1.110       .  S
C167       C1819   1.538   1_545  S
C167        H173   1.086       .  S
C167        C168   1.375       .  D
C169       C1819   1.519   1_545  S
C169        H174   1.087       .  S
C169        C170   1.367       .  D
C170        C188   1.479       .  S
O175       Cu183   2.025       .  S
O175        C185   1.280       .  A
O176       Cu183   2.010       .  S
O176        C186   1.277       .  A
O177       Cu183   1.971       .  S
O177        C187   1.274       .  A
O178       Cu183   1.982       .  S
O178        C188   1.276       .  A
O179       Cu184   2.042       .  S
O179        C188   1.279       .  A
O180       Cu184   2.023       .  S
O180        C187   1.280       .  A
O181       Cu184   2.017       .  S
O181        C186   1.277       .  A
O182       Cu184   2.012       .  S
O182        C185   1.277       .  A
Cu183      Cu184   2.367       .  S
C185        C317   1.494       .  S
C186        C196   1.468       .  S
C187        C298   1.479       .  S
C189        C190   1.534       .  S
C189        C195   1.521       .  S
C189        C193   1.538       .  S
C190        H197   1.087       .  S
C190        C191   1.364       .  D
C191        C192   1.553       .  S
C192        C196   1.544       .  S
C192        C194   1.552       .  S
C192        H198   1.111       .  S
C193        H199   1.086       .  S
C193        C194   1.375       .  D
C195        H200   1.089       .  S
C195        C196   1.353       .  D
N201        C206   1.354       .  A
N201        C205   1.353       .  A
N201        H233   1.043   1_545  S
N202        C210   1.349       .  A
N202       C1865   1.345       .  A
N203        C208   1.348       .  A
N203        C207   1.352       .  A
N203        H234   1.042       .  S
N204        C212   1.351       .  A
N204       C1867   1.349       .  A
C205        C213   1.387       .  A
C205        C221   1.420       .  A
C206        C222   1.423       .  A
C206        C214   1.387       .  A
C207        C215   1.388       .  A
C207        C224   1.419       .  A
C208        C223   1.413       .  A
C208        C216   1.386       .  A
C209       N1858   1.346   1_565  A
C209        C221   1.408   1_565  A
C209        C217   1.387       .  A
C210        C224   1.412       .  A
C210        C218   1.386       .  A
C211       N1860   1.350       .  A
C211        C219   1.385   1_545  A
C211        C222   1.413       .  A
C212        C220   1.387       .  A
C212        C223   1.416       .  A
C213        C214   1.386       .  A
C213       H1329   1.082       .  S
C214       H1330   1.080       .  S
C215        C216   1.384       .  A
C215        H227   1.082       .  S
C216        H228   1.082       .  S
C217       C1874   1.376       .  A
C217        H229   1.082       .  S
C218       C1873   1.375       .  A
C218        H230   1.082       .  S
C219       C1876   1.376       .  A
C219        H231   1.082       .  S
C220       C1875   1.376       .  A
C220        H232   1.082       .  S
C221        C413   1.495       .  S
C222        C314   1.506       .  S
C223        C333   1.492       .  S
C224        C365   1.500       .  S
H225        C765   1.082       .  S
H226        C766   1.077       .  S
N235        C240   1.349       .  A
N235        C239   1.347       .  A
N235        H267   1.043       .  S
N236        C243   1.351       .  A
N236        C244   1.348       .  A
N237        C242   1.354       .  A
N237        C241   1.352       .  A
N237        H268   1.044       .  S
N238        C245   1.347       .  A
N238        C246   1.345       .  A
C239        C247   1.387       .  A
C239        C255   1.409       .  A
C240        C256   1.408       .  A
C240        C248   1.386       .  A
C241        C249   1.388       .  A
C241        C258   1.415       .  A
C242        C257   1.414       .  A
C242        C250   1.386       .  A
C243        C255   1.415       .  A
C243        C251   1.385       .  A
C244        C258   1.411       .  A
C244        C252   1.388       .  A
C245        C253   1.384       .  A
C245        C256   1.409       .  A
C246        C254   1.387       .  A
C246        C257   1.405       .  A
C247        C248   1.380       .  A
C247        H259   1.082       .  S
C248        H260   1.082       .  S
C249        C250   1.379       .  A
C249        H261   1.082       .  S
C250        H262   1.082       .  S
C251        C252   1.380       .  A
C251        H263   1.081       .  S
C252        H264   1.082       .  S
C253        C254   1.375       .  A
C253        H265   1.080       .  S
C254        H266   1.083       .  S
C255        C394   1.493       .  S
C256        C301   1.487       .  S
C257        C346   1.491       .  S
C258        C381   1.487       .  S
O269       Cu277   2.028       .  S
O269        C279   1.279       .  A
O270       Cu277   2.022       .  S
O270        C280   1.278       .  A
O271       Cu277   1.998       .  S
O271        C281   1.275       .  A
O272       Cu277   2.005       .  S
O272        C282   1.279       .  A
O273       Cu278   2.005       .  S
O273        C282   1.276       .  A
O274       Cu278   2.002       .  S
O274        C281   1.279       .  A
O275       Cu278   2.005       .  S
O275        C280   1.278       .  A
O276       Cu278   2.014       .  S
O276        C279   1.277       .  A
Cu277      Cu278   2.372       .  S
C280        C506   1.483       .  S
C282        C442   1.478       .  S
O283       Cu291   2.018       .  S
O283        C293   1.279       .  A
O284       Cu291   2.012       .  S
O284        C294   1.282       .  A
O285       Cu291   2.010       .  S
O285        C295   1.276       .  A
O286       Cu291   2.015       .  S
O286        C296   1.277       .  A
O287       Cu292   2.018       .  S
O287        C296   1.279       .  A
O288       Cu292   2.037       .  S
O288        C295   1.282       .  A
O289       Cu292   2.001       .  S
O289        C294   1.272       .  A
O290       Cu292   1.989       .  S
O290        C293   1.274       .  A
Cu291      Cu292   2.369       .  S
C293        C458   1.483       .  S
C295        C493   1.486       .  S
C297        C302   1.397       .  A
C297       C1402   1.408       .  A
C297        H304   1.082   1_554  S
C298        C849   1.408       .  A
C298        C851   1.414       .  A
C299       C1410   1.516       .  S
C299        C300   1.412       .  A
C299       C1402   1.417       .  A
C300        C301   1.408       .  A
C300        H305   1.083       .  S
C301        C302   1.412       .  A
C302        C303   1.522       .  S
C303        F307   1.385       .  S
C303        F308   1.382       .  S
C303        F309   1.380       .  S
C306        C851   1.514       .  S
C306        F311   1.383       .  S
C306        F312   1.385       .  S
C306        F862   1.382       .  S
F310       C1410   1.382       .  S
C313        C314   1.407       .  A
C313        C318   1.403       .  A
C313        H320   1.083       .  S
C314        C315   1.422       .  A
C315       C1978   1.517   1_545  S
C315       C1420   1.414       .  A
C316        C317   1.408       .  A
C316        C867   1.413       .  A
C316        H321   1.084       .  S
C317        C870   1.422       .  A
C318        C319   1.522       .  S
C318       C1421   1.422       .  A
C319        F323   1.384       .  S
C319        F324   1.383       .  S
C319       F1429   1.379       .  S
C322       C1971   1.517       .  S
C322        F326   1.381       .  S
C322        F327   1.383   1_554  S
C322       F1432   1.384   1_554  S
F325        C871   1.380       .  S
F328        C874   1.384       .  S
C329        C330   1.406       .  A
C329        C334   1.407       .  A
C329        H336   1.084       .  S
C330        C331   1.423       .  A
C331        C338   1.521       .  S
C331        C332   1.403       .  A
C332        C333   1.401       .  A
C332        H337   1.083       .  S
C333        C334   1.419       .  A
C334        C335   1.517       .  S
C335        F339   1.383       .  S
C335        F340   1.383       .  S
C335       F1997   1.381       .  S
C338        F342   1.380       .  S
C338        F343   1.383       .  S
C338        F344   1.385       .  S
F341       C1991   1.382       .  S
C345        C346   1.402       .  A
C345        C350   1.401       .  A
C345        H352   1.083       .  S
C346        C347   1.412       .  A
C347        C354   1.517       .  S
C347        C348   1.412       .  A
C348        C349   1.410       .  A
C348        H353   1.083       .  S
C349        C350   1.424       .  A
C350        C351   1.523       .  S
C351        F355   1.385       .  S
C351        F356   1.380       .  S
C351        F357   1.383       .  S
C354        F358   1.381       .  S
C354        F359   1.383       .  S
C354        F360   1.384       .  S
C361        C362   1.406       .  A
C361        C366   1.411       .  A
C361        H368   1.084       .  S
C362        C363   1.429       .  A
C363        C370   1.522       .  S
C363        C364   1.404       .  A
C364        C365   1.400       .  A
C364        H369   1.082       .  S
C365        C366   1.424       .  A
C366        C367   1.519       .  S
C367        F371   1.383       .  S
C367        F373   1.384       .  S
C367       F2028   1.382       .  S
C370        F374   1.382       .  S
C370        F375   1.379       .  S
C370        F376   1.386       .  S
F372       C2023   1.382       .  S
C377        C378   1.406       .  A
C377        C382   1.412       .  A
C377        H384   1.083       .  S
C378        C379   1.422       .  A
C379        C386   1.521       .  S
C379        C380   1.396       .  A
C380        C381   1.398       .  A
C380        H385   1.083       .  S
C381        C382   1.415       .  A
C382        C383   1.516       .  S
C383        F387   1.385       .  S
C383        F388   1.383       .  S
C383        F389   1.381       .  S
C386        F390   1.382       .  S
C386        F391   1.376       .  S
C386        F392   1.385       .  S
C393        C394   1.401       .  A
C393       C1502   1.403       .  A
C393        H400   1.083       .  S
C394        C395   1.418       .  A
C395        C402   1.518       .  S
C395        C396   1.408       .  A
C396       C1501   1.410       .  A
C396        H401   1.084       .  S
C397        C398   1.423       .  A
C397        C948   1.408       .  A
C398        C399   1.521       .  S
C398        C945   1.402       .  A
C399        F403   1.386       .  S
C399        F404   1.382       .  S
C399        F405   1.383       .  S
C402        F406   1.383       .  S
C402        F407   1.382       .  S
C402        F408   1.384       .  S
C409        C410   1.410       .  A
C409        C414   1.411   1_545  A
C409        H416   1.084   1_545  S
C410        C963   1.425       .  A
C411        C418   1.522       .  S
C411        C412   1.404       .  A
C411       C1514   1.424       .  A
C412        C413   1.405       .  A
C412        H417   1.083       .  S
C413       C1518   1.417   1_545  A
C414        C415   1.519       .  S
C414        C965   1.418   1_565  A
C415        F419   1.383       .  S
C415        F421   1.380       .  S
C415        F972   1.383       .  S
C418        F422   1.381       .  S
C418        F424   1.385       .  S
C418       F1527   1.383       .  S
F420       C1519   1.383   1_556  S
F423        C970   1.383       .  S
C425        C430   1.413       .  A
C425        C978   1.410       .  A
C425        H432   1.083       .  S
C426        C427   1.417       .  A
C426       C1529   1.407       .  A
C427        C434   1.521       .  S
C427        C428   1.401       .  A
C428       C1533   1.404       .  A
C428        H433   1.086       .  S
C429        C430   1.414       .  A
C429        C980   1.403       .  A
C430        C431   1.517       .  S
C431        F435   1.385       .  S
C431        F436   1.382       .  S
C431        F437   1.383       .  S
C434        F438   1.380   1_455  S
C434        F439   1.383   1_455  S
C434        F440   1.378       .  S
C441        C442   1.402       .  A
C441        C446   1.397       .  A
C441        H448   1.085       .  S
C442        C443   1.416       .  A
C443        C450   1.517       .  S
C443        C444   1.413       .  A
C444        C445   1.408       .  A
C444        H449   1.083       .  S
C445        C446   1.420       .  A
C446        C447   1.521       .  S
C447        F451   1.373       .  S
C447        F452   1.382       .  S
C447        F453   1.382       .  S
C450        F454   1.381       .  S
C450        F455   1.383       .  S
C450        F456   1.385       .  S
C457        C458   1.411       .  A
C457        C462   1.416       .  A
C457        H464   1.083       .  S
C458       C1011   1.422       .  A
C459        C466   1.525       .  S
C459        C460   1.391       .  A
C459       C1562   1.422       .  A
C460        C461   1.399       .  A
C460        H465   1.083       .  S
C461       C1566   1.416       .  A
C462        C463   1.518       .  S
C462       C1013   1.416       .  A
C463        F467   1.384       .  S
C463        F468   1.383       .  S
C463        F469   1.380       .  S
C466        F470   1.383       .  S
C466        F471   1.374       .  S
C466        F472   1.385       .  S
C473        C474   1.406       .  A
C473        C478   1.402       .  A
C473        H480   1.083       .  S
C474        C475   1.417       .  A
C475       C1586   1.516       .  S
C475       C1580   1.412       .  A
C476        C477   1.410       .  A
C476       C1027   1.411       .  A
C476        H481   1.084       .  S
C477       C1030   1.421       .  A
C478        C479   1.524       .  S
C478       C1581   1.423       .  A
C479        F483   1.384       .  S
C479        F484   1.383       .  S
C479        F485   1.380       .  S
C482       C1027   1.517       .  S
C482        F486   1.382   1_455  S
C482        F488   1.384       .  S
C482       F1039   1.383       .  S
F487       C1586   1.383   1_556  S
C489        C490   1.411       .  A
C489       C1598   1.416       .  A
C489       H1600   1.083       .  S
C490        C491   1.420       .  A
C491        C498   1.523       .  S
C491        C492   1.409       .  A
C492       C1597   1.403       .  A
C492        H497   1.083       .  S
C493        C494   1.412       .  A
C493       C1044   1.403       .  A
C494        C495   1.515       .  S
C494       C1041   1.417       .  A
C495        F499   1.384       .  S
C495        F500   1.383       .  S
C495        F501   1.384       .  S
H496       C1041   1.083       .  S
C498        F502   1.382       .  S
C498        F503   1.375       .  S
C498        F504   1.380       .  S
C505        C506   1.398       .  A
C505        C510   1.403       .  A
C505        H512   1.083       .  S
C506        C507   1.416   1_545  A
C507        C514   1.517       .  S
C507        C508   1.414       .  A
C508        C509   1.409   1_565  A
C508        H513   1.083       .  S
C509        C510   1.427       .  A
C510        C511   1.525       .  S
C511        F515   1.384       .  S
C511        F516   1.381       .  S
C511        F517   1.379       .  S
C514        F518   1.381       .  S
C514        F519   1.384       .  S
C514        F520   1.385       .  S
C521        C522   1.397       .  A
C521        C526   1.400       .  A
C521        H528   1.084       .  S
C522        C523   1.416       .  A
C523        C530   1.516       .  S
C523        C524   1.414       .  A
C524        C525   1.407       .  A
C524        H529   1.083       .  S
C525        C526   1.428       .  A
C526        C527   1.524       .  S
C527        F531   1.385       .  S
C527        F532   1.379       .  S
C527        F533   1.383       .  S
C530        F534   1.380   1_455  S
C530        F535   1.383       .  S
C530        F536   1.385       .  S
C537        C538   1.399       .  A
C537        C542   1.406       .  A
C537        H544   1.083   1_455  S
C538        C539   1.421   1_545  A
C539        C546   1.517       .  S
C539        C540   1.405   1_565  A
C540        C541   1.403       .  A
C540        H545   1.085       .  S
C541        C542   1.430       .  A
C542        C543   1.523       .  S
C543        F547   1.382       .  S
C543        F548   1.384       .  S
C543        F549   1.385       .  S
C546       F2206   1.384       .  S
C546       F2207   1.382       .  S
C546       F2208   1.383       .  S
F550       C2202   1.383       .  S
F551       C2202   1.382       .  S
F552       C2202   1.383       .  S
O553       Cu561   1.983       .  S
O553        C563   1.270       .  A
O554       Cu561   1.975       .  S
O554        C564   1.274       .  A
O555       Cu561   2.049       .  S
O555        C565   1.283       .  A
O556       Cu561   2.060       .  S
O556        C566   1.284       .  A
O557       Cu562   1.992       .  S
O557        C566   1.274       .  A
O558       Cu562   1.970       .  S
O558        C565   1.269       .  A
O559       Cu562   2.041       .  S
O559        C564   1.282       .  A
O560       Cu562   2.040       .  S
O560        C563   1.284       .  A
Cu561      Cu562   2.362       .  S
C563       C1093   1.495       .  S
C564        C741   1.503       .  S
C565       C1077   1.488       .  S
C566        C720   1.489       .  S
N567        C572   1.353       .  A
N567        C571   1.346       .  A
N567        H599   1.040   1_565  S
N568       C2231   1.358       .  A
N568        C576   1.355       .  A
N569        C574   1.358       .  A
N569        C573   1.355       .  A
N569        H600   1.040       .  S
N570       C2233   1.348   1_655  A
N570        C578   1.346   1_655  A
C571        C579   1.385       .  A
C571        C587   1.407       .  A
C572        C588   1.417   1_665  A
C572        C580   1.388       .  A
C573        C581   1.389       .  A
C573        C590   1.425       .  A
C574        C589   1.422   1_655  A
C574        C582   1.386       .  A
C575       N2224   1.359       .  A
C575        C587   1.426       .  A
C575        C583   1.387       .  A
C576        C590   1.420       .  A
C576        C584   1.385       .  A
C577       N2226   1.349   1_455  A
C577        C585   1.384       .  A
C577        C588   1.413       .  A
C578        C586   1.386       .  A
C578        C589   1.405       .  A
C579        C580   1.384       .  A
C579        H591   1.082       .  S
C580        H592   1.082       .  S
C581        C582   1.380       .  A
C581        H593   1.082       .  S
C582        H594   1.081       .  S
C583       C2240   1.374       .  A
C583        H595   1.080   1_565  S
C584       C2239   1.375       .  A
C584        H596   1.081       .  S
C585       C2242   1.374       .  A
C585        H597   1.080       .  S
C586       C2241   1.373       .  A
C586        H598   1.082       .  S
C587       C1061   1.504       .  S
C588       C1090   1.497       .  S
C589       C1026   1.499       .  S
C590       C1042   1.502       .  S
N601        C606   1.354       .  A
N601        C605   1.354       .  A
N601        H633   1.035       .  S
N602        C609   1.353   1_655  A
N602        C610   1.353   1_655  A
N603        C608   1.357       .  A
N603        C607   1.357       .  A
N603        H634   1.041       .  S
N604        C611   1.355       .  A
N604        C612   1.352       .  A
C605        C613   1.388       .  A
C605        C621   1.414   1_655  A
C606        C622   1.409       .  A
C606        C614   1.383       .  A
C607        C615   1.387       .  A
C607        C624   1.423   1_655  A
C608        C623   1.420       .  A
C608        C616   1.386       .  A
C609        C621   1.415       .  A
C609        C617   1.386       .  A
C610        C624   1.417       .  A
C610        C618   1.388       .  A
C611        C619   1.382       .  A
C611        C622   1.411       .  A
C612        C620   1.390       .  A
C612        C623   1.421       .  A
C613        C614   1.373       .  A
C613        H625   1.082       .  S
C614        H626   1.081       .  S
C615        C616   1.371       .  A
C617        C618   1.368       .  A
C617        H629   1.083       .  S
C618        H630   1.082       .  S
C619        C620   1.358       .  A
C619        H631   1.082       .  S
C620        H632   1.083       .  S
C621       C1074   1.491       .  S
C622        C997   1.492       .  S
C623       C1013   1.497       .  S
C624        C978   1.494       .  S
H627       C1167   1.081       .  S
H628       C1168   1.081       .  S
O635       Cu643   2.006       .  S
O635        C645   1.278       .  A
O636       Cu643   2.033       .  S
O636        C646   1.283       .  A
O637       Cu643   1.991       .  S
O637        C647   1.275       .  A
O638       Cu643   1.999       .  S
O638        C648   1.275       .  A
O639       Cu644   2.010       .  S
O639        C648   1.277       .  A
O640       Cu644   2.017       .  S
O640        C647   1.279       .  A
O641       Cu644   2.040       .  S
O641        C646   1.278       .  A
Cu643      Cu644   2.370       .  S
Cu644      O1194   2.018       .  S
C645       O1194   1.278       .  A
C645       C1029   1.489       .  S
C646        C743   1.493       .  S
C647        C981   1.476       .  S
C648        C717   1.460       .  S
C649        C683   1.513       .  S
C649        C650   1.525       .  S
C649        C655   1.522       .  S
C649        C653   1.542       .  S
C650        H657   1.083       .  S
C650        C651   1.360       .  D
C651        C831   1.479       .  S
C651        C652   1.551       .  S
C652        C656   1.555       .  S
C652        C654   1.543       .  S
C652        H658   1.111       .  S
C653       H1211   1.086       .  S
C653        C654   1.368       .  D
C654        C848   1.479       .  S
C655        H660   1.087       .  S
C655        C656   1.372       .  D
C656        C699   1.483       .  S
C661        C833   1.498       .  S
C661        C662   1.516   1_545  S
C661        C667   1.522       .  S
C661        C665   1.544       .  S
C662       H2325   1.087       .  S
C662       C2319   1.362       .  D
C663        C846   1.465       .  S
C663        C664   1.557       .  S
C663       C2318   1.360       .  D
C664       C2324   1.549       .  S
C664        C666   1.536       .  S
C664        H670   1.111       .  S
C665        H671   1.086       .  S
C665       C2322   1.372   1_545  D
C666        C697   1.478       .  S
C666       C2321   1.371       .  D
C667        H672   1.084       .  S
C667        C668   1.358       .  D
C668        C685   1.471       .  S
C668       C2320   1.548   1_545  S
H669       C2318   1.087       .  S
O673       Cu681   2.013       .  S
O673        C683   1.278       .  A
O674       Cu681   2.003       .  S
O674        C684   1.276       .  A
O675       Cu681   2.014       .  S
O675        C685   1.277       .  A
O676       Cu681   2.004       .  S
O676        C686   1.278       .  A
O677       Cu682   2.014       .  S
O677        C686   1.277       .  A
O678       Cu682   2.017       .  S
O678        C685   1.278       .  A
O679       Cu682   1.998       .  S
O679        C684   1.277       .  A
O680       Cu682   2.021       .  S
O680        C683   1.279       .  A
Cu681      Cu682   2.366       .  S
C684        C962   1.488       .  S
C686        C949   1.494       .  S
O687       Cu695   2.039       .  S
O687        C697   1.281       .  A
O688       Cu695   2.033       .  S
O688        C698   1.281       .  A
O689       Cu695   1.979       .  S
O689        C699   1.275       .  A
O690       Cu695   1.990       .  S
O690        C700   1.272       .  A
O691       Cu696   2.041       .  S
O691        C700   1.284       .  A
O692       Cu696   2.056       .  S
O692        C699   1.282       .  A
O693       Cu696   1.985       .  S
O693        C698   1.272       .  A
O694       Cu696   1.991       .  S
O694        C697   1.274       .  A
Cu695      Cu696   2.367       .  S
C698        C930   1.480       .  S
C700        C914   1.494       .  S
O701       Cu709   2.009       .  S
O701        C711   1.276       .  A
O702       Cu709   2.003       .  S
O702        C712   1.276       .  A
O703       Cu709   2.033       .  S
O703        C713   1.281       .  A
O704       Cu709   2.019       .  S
O704        C714   1.280       .  A
O705       Cu710   2.005       .  S
O705        C714   1.276       .  A
O706       Cu710   2.012       .  S
O706        C713   1.276       .  A
O707       Cu710   2.012       .  S
O707        C712   1.279       .  A
O708       Cu710   2.000       .  S
O708        C711   1.279       .  A
Cu709      Cu710   2.370       .  S
C711        C715   1.501       .  S
C712        C901   1.486       .  S
C713        C746   1.482       .  S
C714        C882   1.485       .  S
C715        C716   1.514       .  S
C715       C2377   1.521       .  S
C715       C2375   1.540       .  S
C716        H723   1.090       .  S
C716        C717   1.353       .  D
C717       C2374   1.549       .  S
C718       C2373   1.547   1_545  S
C718        C722   1.555       .  S
C718        C720   1.546       .  S
C718        H724   1.111       .  S
C719       C2371   1.541   1_545  S
C719        H725   1.086       .  S
C719        C720   1.376       .  D
C721       C2371   1.519   1_545  S
C721        H726   1.087       .  S
C721        C722   1.366       .  D
C722        C740   1.475       .  S
O727       Cu735   2.039       .  S
O727        C737   1.281       .  A
O728       Cu735   2.022       .  S
O728        C738   1.279       .  A
O729       Cu735   1.970       .  S
O729        C739   1.274       .  A
O730       Cu735   1.987       .  S
O730        C740   1.277       .  A
O731       Cu736   2.031       .  S
O731        C740   1.278       .  A
O732       Cu736   2.013       .  S
O732        C739   1.278       .  A
O733       Cu736   2.016       .  S
O733        C738   1.277       .  A
O734       Cu736   2.017       .  S
O734        C737   1.278       .  A
Cu735      Cu736   2.366       .  S
C737        C869   1.501       .  S
C738        C748   1.472       .  S
C739        C850   1.475       .  S
C741        C742   1.535       .  S
C741        C747   1.518       .  S
C741        C745   1.539       .  S
C742        H749   1.087       .  S
C742        C743   1.366       .  D
C743        C744   1.559       .  S
C744        C748   1.549       .  S
C744        C746   1.553       .  S
C744        H750   1.111       .  S
C745        H751   1.086       .  S
C745        C746   1.375       .  D
C747        H752   1.089       .  S
C747        C748   1.351       .  D
N753        C758   1.354       .  A
N753        C757   1.353       .  A
N753        H785   1.043   1_545  S
N754       C2417   1.346       .  A
N754        C762   1.349       .  A
N755        C760   1.348       .  A
N755        C759   1.354       .  A
N755        H786   1.042       .  S
N756       C2419   1.351       .  A
N756        C764   1.352       .  A
C757        C765   1.385       .  A
C757        C773   1.418   1_545  A
C758        C774   1.423       .  A
C758        C766   1.387       .  A
C759        C767   1.388       .  A
C759        C776   1.421       .  A
C760        C775   1.414       .  A
C760        C768   1.386       .  A
C761       N2410   1.347   1_565  A
C761        C773   1.409       .  A
C761        C769   1.386       .  A
C762        C776   1.413       .  A
C762        C770   1.386       .  A
C763       N2412   1.351   1_565  A
C763        C771   1.386       .  A
C763        C774   1.415   1_565  A
C764        C772   1.387       .  A
C764        C775   1.417       .  A
C765        C766   1.383       .  A
C767        C768   1.384       .  A
C767        H779   1.082       .  S
C768        H780   1.082       .  S
C769       C2426   1.375       .  A
C769        H781   1.083       .  S
C770       C2425   1.375       .  A
C770        H782   1.082       .  S
C771       C2428   1.376       .  A
C771        H783   1.082       .  S
C772       C2427   1.376       .  A
C772        H784   1.081       .  S
C773        C965   1.494   1_565  S
C774        C866   1.509       .  S
C775        C885   1.493       .  S
C776        C917   1.503       .  S
H777       C1317   1.082       .  S
H778       C1318   1.080       .  S
N787        C792   1.347       .  A
N787        C791   1.346       .  A
N787        H819   1.043       .  S
N788        C795   1.350       .  A
N788        C796   1.346       .  A
N789        C794   1.353       .  A
N789        C793   1.351       .  A
N789        H820   1.044       .  S
N790        C797   1.346       .  A
N790        C798   1.345       .  A
C791        C799   1.387       .  A
C791        C807   1.408       .  A
C792        C808   1.406       .  A
C792        C800   1.386       .  A
C793        C801   1.388       .  A
C793        C810   1.413       .  A
C794        C809   1.414       .  A
C794        C802   1.387       .  A
C795        C807   1.415       .  A
C795        C803   1.385       .  A
C796        C810   1.409       .  A
C796        C804   1.387       .  A
C797        C805   1.384       .  A
C797        C808   1.408       .  A
C798        C806   1.387       .  A
C798        C809   1.405       .  A
C799        C800   1.380       .  A
C799        H811   1.082       .  S
C800        H812   1.082       .  S
C801        C802   1.380       .  A
C801        H813   1.082       .  S
C802        H814   1.082       .  S
C803        C804   1.380       .  A
C803        H815   1.081       .  S
C804        H816   1.082       .  S
C805        C806   1.376       .  A
C805        H817   1.081       .  S
C806        H818   1.082       .  S
C807        C946   1.491       .  S
C808        C853   1.482       .  S
C809        C898   1.489       .  S
C810        C933   1.487       .  S
O821       Cu829   2.033       .  S
O821        C831   1.280       .  A
O822       Cu829   2.026       .  S
O822        C832   1.279       .  A
O823       Cu829   1.998       .  S
O823        C833   1.276       .  A
O824       Cu829   2.001       .  S
O824        C834   1.278       .  A
O825       Cu830   1.998       .  S
O825        C834   1.275       .  A
O826       Cu830   2.002       .  S
O826        C833   1.278       .  A
O827       Cu830   2.010       .  S
O827        C832   1.279       .  A
O828       Cu830   2.018       .  S
O828        C831   1.278       .  A
Cu829      Cu830   2.372       .  S
C832       C1058   1.487       .  S
C834        C994   1.473       .  S
O835       Cu843   2.013       .  S
O835        C845   1.279       .  A
O836       Cu843   2.004       .  S
O836        C846   1.281       .  A
O837       Cu843   2.009       .  S
O837        C847   1.276       .  A
O838       Cu843   2.017       .  S
O838        C848   1.277       .  A
O839       Cu844   2.020       .  S
O839        C848   1.280       .  A
O840       Cu844   2.037       .  S
O840        C847   1.282       .  A
O841       Cu844   1.993       .  S
O841        C846   1.271       .  A
O842       Cu844   1.984       .  S
O842        C845   1.273       .  A
Cu843      Cu844   2.369       .  S
C845       C1010   1.480       .  S
C847       C1045   1.486       .  S
C849        C854   1.397       .  A
C849        H856   1.083       .  S
C850       C1401   1.406       .  A
C850       C1403   1.414       .  A
C851        C852   1.410       .  A
C852        C853   1.406       .  A
C852        H857   1.083       .  S
C853        C854   1.411       .  A
C854        C855   1.520       .  S
C855        F859   1.385       .  S
C855        F860   1.382       .  S
C855        F861   1.381       .  S
C858       C1403   1.516       .  S
C858       F1414   1.382       .  S
C858        F863   1.383       .  S
C858        F864   1.384       .  S
C865        C866   1.408       .  A
C865        C870   1.403       .  A
C865        H872   1.083       .  S
C866        C867   1.424       .  A
C867       C2530   1.518   1_545  S
C868       C1419   1.417       .  A
C868        C869   1.410       .  A
C868        H873   1.084       .  S
C869       C1422   1.424       .  A
C870        C871   1.522       .  S
C871        F875   1.385       .  S
C871        F876   1.383       .  S
C874       C2523   1.517       .  S
C874        F878   1.380       .  S
C874        F879   1.383       .  S
F877       C1423   1.379       .  S
F880       C1426   1.384       .  S
C881        C882   1.405       .  A
C881        C886   1.408       .  A
C881        H888   1.084       .  S
C882        C883   1.423       .  A
C883        C890   1.521       .  S
C883        C884   1.403       .  A
C884        C885   1.401       .  A
C884        H889   1.083       .  S
C885        C886   1.419       .  A
C886        C887   1.517       .  S
C887        F891   1.384       .  S
C887        F892   1.383       .  S
C887       F2549   1.382       .  S
C890        F894   1.378       .  S
C890        F895   1.383       .  S
C890        F896   1.385       .  S
F893       C2543   1.381       .  S
C897        C898   1.401       .  A
C897        C902   1.400       .  A
C897        H904   1.083       .  S
C898        C899   1.411       .  A
C899        C906   1.517       .  S
C899        C900   1.411       .  A
C900        C901   1.410       .  A
C900        H905   1.083       .  S
C901        C902   1.425       .  A
C902        C903   1.523       .  S
C903        F907   1.385       .  S
C903        F908   1.380       .  S
C903        F909   1.383       .  S
C906        F910   1.381       .  S
C906        F911   1.383       .  S
C906        F912   1.384       .  S
C913        C914   1.404       .  A
C913        C918   1.409       .  A
C913        H920   1.084       .  S
C914        C915   1.427       .  A
C915        C922   1.521       .  S
C915        C916   1.406       .  A
C916        C917   1.401       .  A
C916        H921   1.082       .  S
C917        C918   1.424       .  A
C918        C919   1.518       .  S
C919        F923   1.384       .  S
C919       F2580   1.382       .  S
C919        F925   1.383       .  S
C922        F926   1.383       .  S
C922        F927   1.381       .  S
C922        F928   1.385       .  S
F924       C2575   1.382       .  S
C929        C930   1.407       .  A
C929        C934   1.412       .  A
C929        H936   1.083       .  S
C930        C931   1.423       .  A
C931        C938   1.521       .  S
C931        C932   1.397       .  A
C932        C933   1.399       .  A
C932        H937   1.083       .  S
C933        C934   1.414       .  A
C934        C935   1.517       .  S
C935        F939   1.385       .  S
C935        F940   1.383       .  S
C935        F941   1.381       .  S
C938        F942   1.382       .  S
C938        F943   1.378       .  S
C938        F944   1.385       .  S
C945        C946   1.403       .  A
C945        H952   1.083       .  S
C946        C947   1.418       .  A
C947        C954   1.518       .  S
C947        C948   1.405       .  A
C948        H953   1.085       .  S
C949       C1500   1.409       .  A
C949        C950   1.426       .  A
C950        C951   1.521       .  S
C950       C1497   1.407       .  A
C951        F955   1.385       .  S
C951        F956   1.382       .  S
C951        F957   1.383       .  S
C954        F958   1.383       .  S
C954        F959   1.381       .  S
C954        F960   1.384       .  S
C961        C962   1.409       .  A
C961        C966   1.408   1_545  A
C961        H968   1.084   1_545  S
C962       C1515   1.425       .  A
C963        C970   1.522       .  S
C963        C964   1.401       .  A
C964        C965   1.403       .  A
C964        H969   1.083       .  S
C966        C967   1.517       .  S
C966       C1517   1.417   1_565  A
C967        F971   1.384       .  S
C967       F1524   1.383       .  S
C967        F973   1.381       .  S
C970        F974   1.380       .  S
C970        F976   1.385       .  S
F975       C1522   1.383       .  S
C977       C1530   1.408       .  A
C977        C982   1.409       .  A
C977        H984   1.083       .  S
C978        C979   1.418       .  A
C979        C986   1.521       .  S
C979        C980   1.400       .  A
C980        H985   1.086       .  S
C981       C1532   1.405       .  A
C981        C982   1.412       .  A
C982        C983   1.516       .  S
C983        F987   1.384       .  S
C983        F988   1.382       .  S
C983        F989   1.383       .  S
C986        F990   1.380   1_455  S
C986        F991   1.383   1_455  S
C986        F992   1.379       .  S
C993        C994   1.402       .  A
C993        C998   1.397       .  A
C993       H1000   1.085       .  S
C994        C995   1.414       .  A
C995       C1002   1.517       .  S
C995        C996   1.412       .  A
C996        C997   1.408       .  A
C996       H1001   1.083       .  S
C997        C998   1.420       .  A
C998        C999   1.522       .  S
C999       F1003   1.374       .  S
C999       F1004   1.382       .  S
C999       F1005   1.382       .  S
C1002      F1006   1.382       .  S
C1002      F1007   1.383       .  S
C1002      F1008   1.384       .  S
C1009      C1010   1.409       .  A
C1009      C1014   1.414       .  A
C1009      H1016   1.083       .  S
C1010      C1563   1.423       .  A
C1011      C1018   1.525       .  S
C1011      C1012   1.391       .  A
C1012      C1013   1.400       .  A
C1012      H1017   1.083       .  S
C1014      C1015   1.518       .  S
C1014      C1565   1.417       .  A
C1015      F1019   1.385       .  S
C1015      F1020   1.383       .  S
C1015      F1021   1.380       .  S
C1018      F1022   1.383       .  S
C1018      F1023   1.374       .  S
C1018      F1024   1.385       .  S
C1025      C1026   1.406       .  A
C1025      C1030   1.399       .  A
C1025      H1032   1.083       .  S
C1026      C1027   1.418       .  A
C1028      C1579   1.412       .  A
C1028      C1029   1.410       .  A
C1028      H1033   1.084       .  S
C1029      C1582   1.422       .  A
C1030      C1031   1.523       .  S
C1031      F1035   1.384       .  S
C1031      F1036   1.383       .  S
C1031      F1037   1.378       .  S
C1034      C1579   1.517       .  S
C1034      F1038   1.381   1_455  S
C1034      F1591   1.383       .  S
C1034      F1040   1.383       .  S
C1041      C1042   1.411       .  A
C1042      C1043   1.419       .  A
C1043      C1050   1.522       .  S
C1043      C1044   1.408       .  A
C1044      H1049   1.084       .  S
C1045      C1596   1.404       .  A
C1045      C1046   1.413       .  A
C1046      C1047   1.515       .  S
C1046      C1593   1.415       .  A
C1047      F1051   1.384       .  S
C1047      F1052   1.383       .  S
C1047      F1053   1.383       .  S
H1048      C1593   1.083       .  S
C1050      F1054   1.383       .  S
C1050      F1055   1.376       .  S
C1050      F1056   1.380       .  S
C1057      C1058   1.400       .  A
C1057      C1062   1.405       .  A
C1057      H1064   1.083       .  S
C1058      C1059   1.417   1_545  A
C1059      C1066   1.517       .  S
C1059      C1060   1.415       .  A
C1060      C1061   1.409       .  A
C1060      H1065   1.083       .  S
C1061      C1062   1.427   1_565  A
C1062      C1063   1.526       .  S
C1063      F1067   1.384       .  S
C1063      F1068   1.381       .  S
C1063      F1069   1.379       .  S
C1066      F1070   1.381       .  S
C1066      F1071   1.384       .  S
C1066      F1072   1.385       .  S
C1073      C1074   1.395       .  A
C1073      C1078   1.395       .  A
C1073      H1080   1.084       .  S
C1074      C1075   1.417       .  A
C1075      C1082   1.519       .  S
C1075      C1076   1.415       .  A
C1076      C1077   1.409       .  A
C1076      H1081   1.083       .  S
C1077      C1078   1.428       .  A
C1078      C1079   1.523       .  S
C1079      F1083   1.384       .  S
C1079      F1084   1.377       .  S
C1079      F1085   1.383       .  S
C1082      F1086   1.380   1_455  S
C1082      F1087   1.383       .  S
C1082      F1088   1.384       .  S
C1089      C1090   1.398       .  A
C1089      C1094   1.407       .  A
C1089      H1096   1.083   1_455  S
C1090      C1091   1.420   1_545  A
C1091      C1098   1.515       .  S
C1091      C1092   1.407   1_565  A
C1092      C1093   1.404       .  A
C1092      H1097   1.084   1_545  S
C1093      C1094   1.431       .  A
C1094      C1095   1.522       .  S
C1095      F1099   1.381       .  S
C1095      F1100   1.383       .  S
C1095      F1101   1.385   1_455  S
C1098      F2758   1.383       .  S
C1098      F2759   1.383       .  S
C1098      F2760   1.384       .  S
F1102      C2754   1.383       .  S
F1103      C2754   1.382       .  S
F1104      C2754   1.384       .  S
O1105     Cu1113   1.987       .  S
O1105      C1115   1.271       .  A
O1106     Cu1113   1.976       .  S
O1106      C1116   1.274       .  A
O1107     Cu1113   2.058       .  S
O1107      C1117   1.284       .  A
O1108     Cu1113   2.069       .  S
O1108      C1118   1.285       .  A
O1109     Cu1114   1.999       .  S
O1109      C1118   1.275       .  A
O1110     Cu1114   1.978       .  S
O1110      C1117   1.270       .  A
O1111     Cu1114   2.049       .  S
O1111      C1116   1.282       .  A
O1112     Cu1114   2.045       .  S
O1112      C1115   1.285       .  A
Cu1113    Cu1114   2.361       .  S
C1115      C1645   1.498       .  S
C1116      C1293   1.507       .  S
C1117      C1629   1.493       .  S
C1118      C1272   1.495       .  S
N1119      C1124   1.353       .  A
N1119      C1123   1.345       .  A
N1119      H1151   1.041   1_565  S
N1120      C2783   1.357       .  A
N1120      C1128   1.354       .  A
N1121      C1126   1.358       .  A
N1121      C1125   1.355       .  A
N1121      H1152   1.039       .  S
N1122      C2785   1.349   1_655  A
N1122      C1130   1.346   1_655  A
C1123      C1131   1.386       .  A
C1123      C1139   1.407       .  A
C1124      C1140   1.415   1_655  A
C1124      C1132   1.387       .  A
C1125      C1133   1.388       .  A
C1125      C1142   1.425       .  A
C1126      C1141   1.423   1_655  A
C1126      C1134   1.386       .  A
C1127      N2776   1.358       .  A
C1127      C1139   1.426       .  A
C1127      C1135   1.387       .  A
C1128      C1142   1.420       .  A
C1128      C1136   1.386       .  A
C1129      N2778   1.348   1_455  A
C1129      C1137   1.384       .  A
C1129      C1140   1.411   1_545  A
C1130      C1138   1.387       .  A
C1130      C1141   1.408       .  A
C1131      C1132   1.384       .  A
C1131      H1143   1.082       .  S
C1132      H1144   1.082       .  S
C1133      C1134   1.379       .  A
C1133      H1145   1.082       .  S
C1134      H1146   1.081       .  S
C1135      C2792   1.374       .  A
C1135      H1147   1.080       .  S
C1136      C2791   1.374       .  A
C1136      H1148   1.081       .  S
C1137      C2794   1.373       .  A
C1137      H1149   1.080       .  S
C1138      C2793   1.375       .  A
C1138      H1150   1.083       .  S
C1139      C1613   1.502       .  S
C1140      C1642   1.496   1_565  S
C1141      C1578   1.501       .  S
C1142      C1594   1.501       .  S
N1153      C1158   1.353       .  A
N1153      C1157   1.356       .  A
N1153      H1185   1.036       .  S
N1154      C1161   1.353   1_655  A
N1154      C1162   1.351   1_655  A
N1155      C1160   1.357       .  A
N1155      C1159   1.355       .  A
N1155      H1186   1.049       .  S
N1156      C1163   1.353       .  A
N1156      C1164   1.352       .  A
C1157      C1165   1.388       .  A
C1157      C1173   1.416       .  A
C1158      C1174   1.411       .  A
C1158      C1166   1.384       .  A
C1159      C1167   1.388       .  A
C1159      C1176   1.423   1_655  A
C1160      C1175   1.421       .  A
C1160      C1168   1.386       .  A
C1161      C1173   1.412   1_455  A
C1161      C1169   1.384       .  A
C1162      C1176   1.418       .  A
C1162      C1170   1.389       .  A
C1163      C1171   1.383       .  A
C1163      C1174   1.411       .  A
C1164      C1172   1.390       .  A
C1164      C1175   1.421       .  A
C1165      C1166   1.374       .  A
C1165      H1177   1.082       .  S
C1166      H1178   1.081       .  S
C1167      C1168   1.371       .  A
C1169      C1170   1.369       .  A
C1169      H1181   1.083       .  S
C1170      H1182   1.082       .  S
C1171      C1172   1.359       .  A
C1171      H1183   1.082       .  S
C1172      H1184   1.083       .  S
C1173      C1626   1.494   1_655  S
C1174      C1549   1.489       .  S
C1175      C1565   1.496       .  S
C1176      C1530   1.490       .  S
O1187     Cu1195   2.010       .  S
O1187      C1197   1.278   1_556  A
O1188     Cu1195   2.030       .  S
O1188      C1198   1.282       .  A
O1189     Cu1195   1.994       .  S
O1189      C1199   1.275       .  A
O1190     Cu1195   2.004       .  S
O1190      C1200   1.276       .  A
O1191     Cu1196   2.012       .  S
O1191      C1200   1.277       .  A
O1192     Cu1196   2.023   1_554  S
O1192      C1199   1.279   1_554  A
O1193     Cu1196   2.033       .  S
O1193      C1198   1.277       .  A
Cu1195    Cu1196   2.370       .  S
C1197      C1581   1.492       .  S
C1198      C1295   1.488       .  S
C1199      C1533   1.475   1_556  S
C1200      C1269   1.463       .  S
C1201      C1235   1.515       .  S
C1201      C1202   1.524       .  S
C1201      C1207   1.523       .  S
C1201      C1205   1.541       .  S
C1202      H1209   1.083       .  S
C1202      C1203   1.360       .  D
C1203      C1383   1.473       .  S
C1203      C1204   1.547       .  S
C1204      C1208   1.553       .  S
C1204      C1206   1.543       .  S
C1204      H1210   1.111       .  S
C1205      C1206   1.368       .  D
C1206      C1400   1.478       .  S
C1207      H1212   1.087       .  S
C1207      C1208   1.373       .  D
C1208      C1251   1.482       .  S
C1213      C1385   1.498       .  S
C1213      C1214   1.516   1_545  S
C1213      C1219   1.521       .  S
C1213      C1217   1.543       .  S
C1214      H2877   1.087       .  S
C1214      C2871   1.363       .  D
C1215      C1398   1.472       .  S
C1215      C1216   1.560       .  S
C1215      C2870   1.362       .  D
C1216      C2876   1.549       .  S
C1216      C1218   1.540       .  S
C1216      H1222   1.111       .  S
C1217      H1223   1.086       .  S
C1217      C2874   1.371   1_545  D
C1218      C1249   1.482       .  S
C1218      C2873   1.372       .  D
C1219      H1224   1.084       .  S
C1219      C1220   1.357       .  D
C1220      C1237   1.472       .  S
C1220      C2872   1.550   1_545  S
H1221      C2870   1.087       .  S
O1225     Cu1233   2.020       .  S
O1225      C1235   1.280       .  A
O1226     Cu1233   2.013   1_554  S
O1226      C1236   1.278       .  A
O1227     Cu1233   2.016       .  S
O1227      C1237   1.277       .  A
O1228     Cu1233   2.001   1_554  S
O1228      C1238   1.277   1_554  A
O1229     Cu1234   2.014       .  S
O1229      C1238   1.278       .  A
O1230     Cu1234   2.017       .  S
O1230      C1237   1.278       .  A
O1231     Cu1234   2.001       .  S
O1231      C1236   1.277   1_556  A
O1232     Cu1234   2.020       .  S
O1232      C1235   1.279       .  A
Cu1233    Cu1234   2.366       .  S
C1236      C1514   1.492       .  S
C1238      C1501   1.491   1_556  S
O1239     Cu1247   2.046       .  S
O1239      C1249   1.282       .  A
O1240     Cu1247   2.044       .  S
O1240      C1250   1.282       .  A
O1241     Cu1247   1.972       .  S
O1241      C1251   1.273       .  A
O1242     Cu1247   1.988       .  S
O1242      C1252   1.272       .  A
O1243     Cu1248   2.047       .  S
O1243      C1252   1.285       .  A
O1244     Cu1248   2.060       .  S
O1244      C1251   1.283       .  A
O1245     Cu1248   1.989       .  S
O1245      C1250   1.272       .  A
O1246     Cu1248   1.993       .  S
O1246      C1249   1.274       .  A
Cu1247    Cu1248   2.366       .  S
C1250      C1482   1.486       .  S
C1252      C1466   1.493       .  S
O1253     Cu1261   2.011       .  S
O1253      C1263   1.277       .  A
O1254     Cu1261   2.001       .  S
O1254      C1264   1.276       .  A
O1255     Cu1261   2.031       .  S
O1255      C1265   1.280       .  A
O1256     Cu1261   2.018       .  S
O1256      C1266   1.279       .  A
O1257     Cu1262   2.012       .  S
O1257      C1266   1.277       .  A
O1258     Cu1262   2.018       .  S
O1258      C1265   1.278       .  A
O1259     Cu1262   2.013       .  S
O1259      C1264   1.278       .  A
O1260     Cu1262   2.000       .  S
O1260      C1263   1.279       .  A
Cu1261    Cu1262   2.369       .  S
C1263      C1267   1.502       .  S
C1264      C1453   1.487       .  S
C1265      C1298   1.484       .  S
C1266      C1434   1.487       .  S
C1267      C1268   1.514       .  S
C1267      C2929   1.520       .  S
C1267      C2927   1.539       .  S
C1268      H1275   1.089       .  S
C1268      C1269   1.354       .  D
C1269      C2926   1.551       .  S
C1270      C2925   1.553   1_545  S
C1270      C1274   1.560       .  S
C1270      C1272   1.550       .  S
C1270      H1276   1.110       .  S
C1271      C2923   1.541   1_545  S
C1271      H1277   1.086       .  S
C1271      C1272   1.376       .  D
C1273      C2923   1.520   1_545  S
C1273      H1278   1.087       .  S
C1273      C1274   1.368       .  D
C1274      C1292   1.483       .  S
O1279     Cu1287   2.028       .  S
O1279      C1289   1.280   1_556  A
O1280     Cu1287   2.011       .  S
O1280      C1290   1.277       .  A
O1281     Cu1287   1.977       .  S
O1281      C1291   1.275   1_556  A
O1282     Cu1287   1.990       .  S
O1282      C1292   1.277       .  A
O1283     Cu1288   2.047       .  S
O1283      C1292   1.280       .  A
O1284     Cu1288   2.029   1_554  S
O1284      C1291   1.280       .  A
O1285     Cu1288   2.018       .  S
O1285      C1290   1.277       .  A
O1286     Cu1288   2.012   1_554  S
O1286      C1289   1.277       .  A
Cu1287    Cu1288   2.366       .  S
C1289      C1421   1.494       .  S
C1290      C1300   1.469       .  S
C1291      C1402   1.484       .  S
C1293      C1294   1.535       .  S
C1293      C1299   1.520       .  S
C1293      C1297   1.542       .  S
C1294      H1301   1.087       .  S
C1294      C1295   1.364       .  D
C1295      C1296   1.554       .  S
C1296      C1300   1.545       .  S
C1296      C1298   1.552       .  S
C1296      H1302   1.111       .  S
C1297      H1303   1.086       .  S
C1297      C1298   1.378       .  D
C1299      H1304   1.089       .  S
C1299      C1300   1.352       .  D
N1305      C1310   1.354       .  A
N1305      C1309   1.353       .  A
N1305      H1337   1.043   1_545  S
N1306      C2969   1.346       .  A
N1306      C1314   1.349       .  A
N1307      C1312   1.348       .  A
N1307      C1311   1.353       .  A
N1307      H1338   1.041       .  S
N1308      C2971   1.351       .  A
N1308      C1316   1.353       .  A
C1309      C1317   1.386       .  A
C1309      C1325   1.419       .  A
C1310      C1326   1.422       .  A
C1310      C1318   1.387       .  A
C1311      C1319   1.388       .  A
C1311      C1328   1.419       .  A
C1312      C1327   1.415       .  A
C1312      C1320   1.387       .  A
C1313      N2962   1.346   1_565  A
C1313      C1325   1.407   1_565  A
C1313      C1321   1.387       .  A
C1314      C1328   1.412       .  A
C1314      C1322   1.386       .  A
C1315      N2964   1.351       .  A
C1315      C1323   1.385   1_545  A
C1315      C1326   1.415       .  A
C1316      C1324   1.387       .  A
C1316      C1327   1.418       .  A
C1317      C1318   1.385       .  A
C1319      C1320   1.384       .  A
C1319      H1331   1.082       .  S
C1320      H1332   1.082       .  S
C1321      C2978   1.375       .  A
C1321      H1333   1.083       .  S
C1322      C2977   1.375       .  A
C1322      H1334   1.082       .  S
C1323      C2980   1.377       .  A
C1323      H1335   1.082       .  S
C1324      C2979   1.376       .  A
C1324      H1336   1.081       .  S
C1325      C1517   1.493       .  S
C1326      C1418   1.508       .  S
C1327      C1437   1.496       .  S
C1328      C1469   1.500       .  S
N1339      C1344   1.346       .  A
N1339      C1343   1.347       .  A
N1339      H1371   1.043       .  S
N1340      C1347   1.351       .  A
N1340      C1348   1.347       .  A
N1341      C1346   1.354       .  A
N1341      C1345   1.352       .  A
N1341      H1372   1.045       .  S
N1342      C1349   1.347       .  A
N1342      C1350   1.347       .  A
C1343      C1351   1.387       .  A
C1343      C1359   1.409       .  A
C1344      C1360   1.407       .  A
C1344      C1352   1.388       .  A
C1345      C1353   1.388       .  A
C1345      C1362   1.414       .  A
C1346      C1361   1.415       .  A
C1346      C1354   1.387       .  A
C1347      C1359   1.416       .  A
C1347      C1355   1.385       .  A
C1348      C1362   1.409       .  A
C1348      C1356   1.386       .  A
C1349      C1357   1.385       .  A
C1349      C1360   1.411       .  A
C1350      C1358   1.388       .  A
C1350      C1361   1.408       .  A
C1351      C1352   1.383       .  A
C1351      H1363   1.082       .  S
C1352      H1364   1.082       .  S
C1353      C1354   1.380       .  A
C1353      H1365   1.082       .  S
C1354      H1366   1.082       .  S
C1355      C1356   1.381       .  A
C1355      H1367   1.081       .  S
C1356      H1368   1.082       .  S
C1357      C1358   1.377       .  A
C1357      H1369   1.081       .  S
C1358      H1370   1.082       .  S
C1359      C1498   1.494       .  S
C1360      C1405   1.482       .  S
C1361      C1450   1.494       .  S
C1362      C1485   1.489       .  S
O1373     Cu1381   2.022       .  S
O1373      C1383   1.278       .  A
O1374     Cu1381   2.013       .  S
O1374      C1384   1.277       .  A
O1375     Cu1381   1.996       .  S
O1375      C1385   1.276       .  A
O1376     Cu1381   1.997       .  S
O1376      C1386   1.278       .  A
O1377     Cu1382   1.998       .  S
O1377      C1386   1.275       .  A
O1378     Cu1382   2.002       .  S
O1378      C1385   1.278       .  A
O1379     Cu1382   2.005       .  S
O1379      C1384   1.278       .  A
O1380     Cu1382   2.014       .  S
O1380      C1383   1.278       .  A
Cu1381    Cu1382   2.373       .  S
C1384      C1610   1.482       .  S
C1386      C1546   1.473       .  S
O1387     Cu1395   2.019       .  S
O1387      C1397   1.279       .  A
O1388     Cu1395   2.014       .  S
O1388      C1398   1.282       .  A
O1389     Cu1395   2.012       .  S
O1389      C1399   1.276       .  A
O1390     Cu1395   2.018       .  S
O1390      C1400   1.277       .  A
O1391     Cu1396   2.014       .  S
O1391      C1400   1.279       .  A
O1392     Cu1396   2.034       .  S
O1392      C1399   1.281       .  A
O1393     Cu1396   2.002       .  S
O1393      C1398   1.272       .  A
O1394     Cu1396   1.990   1_554  S
O1394      C1397   1.274   1_554  A
Cu1395    Cu1396   2.369       .  S
C1397      C1562   1.483   1_556  S
C1399      C1597   1.486   1_556  S
C1401      C1406   1.396       .  A
C1401      H1408   1.083       .  S
C1403      C1404   1.410       .  A
C1404      C1405   1.407       .  A
C1404      H1409   1.083       .  S
C1405      C1406   1.414       .  A
C1406      C1407   1.524       .  S
C1407      F1411   1.385       .  S
C1407      F1412   1.383       .  S
C1407      F1413   1.380       .  S
C1410      F1415   1.382       .  S
C1410      F1416   1.385       .  S
C1417      C1418   1.405       .  A
C1417      C1422   1.404       .  A
C1417      H1424   1.083       .  S
C1418      C1419   1.423       .  A
C1419      C3082   1.519   1_545  S
C1420      C1421   1.408       .  A
C1420      H1425   1.084   1_554  S
C1422      C1423   1.521       .  S
C1423      F1427   1.385       .  S
C1423      F1428   1.384       .  S
C1426      C3075   1.517       .  S
C1426      F1430   1.381       .  S
C1426      F1431   1.382       .  S
C1433      C1434   1.406       .  A
C1433      C1438   1.408       .  A
C1433      H1440   1.084       .  S
C1434      C1435   1.423       .  A
C1435      C1442   1.520       .  S
C1435      C1436   1.404       .  A
C1436      C1437   1.402       .  A
C1436      H1441   1.083       .  S
C1437      C1438   1.420       .  A
C1438      C1439   1.517       .  S
C1439      F1443   1.384       .  S
C1439      F1444   1.383       .  S
C1439      F3101   1.381       .  S
C1442      F1446   1.379       .  S
C1442      F1447   1.382       .  S
C1442      F1448   1.385       .  S
F1445      C3095   1.381       .  S
C1449      C1450   1.402       .  A
C1449      C1454   1.398       .  A
C1449      H1456   1.083       .  S
C1450      C1451   1.416       .  A
C1451      C1458   1.519       .  S
C1451      C1452   1.414       .  A
C1452      C1453   1.410       .  A
C1452      H1457   1.083       .  S
C1453      C1454   1.424       .  A
C1454      C1455   1.524       .  S
C1455      F1459   1.385       .  S
C1455      F1460   1.381       .  S
C1455      F1461   1.383       .  S
C1458      F1462   1.380       .  S
C1458      F1463   1.383       .  S
C1458      F1464   1.385       .  S
C1465      C1466   1.404       .  A
C1465      C1470   1.409       .  A
C1465      H1472   1.084       .  S
C1466      C1467   1.428       .  A
C1467      C1474   1.522       .  S
C1467      C1468   1.405       .  A
C1468      C1469   1.400       .  A
C1468      H1473   1.082       .  S
C1469      C1470   1.423       .  A
C1470      C1471   1.518       .  S
C1471      F1475   1.383       .  S
C1471      F3132   1.382       .  S
C1471      F1477   1.383       .  S
C1474      F1478   1.383       .  S
C1474      F1479   1.380       .  S
C1474      F1480   1.385       .  S
F1476      C3127   1.382       .  S
C1481      C1482   1.408       .  A
C1481      C1486   1.414       .  A
C1481      H1488   1.083       .  S
C1482      C1483   1.424       .  A
C1483      C1490   1.521       .  S
C1483      C1484   1.398       .  A
C1484      C1485   1.398       .  A
C1484      H1489   1.083       .  S
C1485      C1486   1.415       .  A
C1486      C1487   1.517       .  S
C1487      F1491   1.384       .  S
C1487      F1492   1.384       .  S
C1487      F1493   1.381       .  S
C1490      F1494   1.382       .  S
C1490      F1495   1.377       .  S
C1490      F1496   1.385       .  S
C1497      C1498   1.403       .  A
C1497      H1504   1.083       .  S
C1498      C1499   1.417       .  A
C1499      C1506   1.518       .  S
C1499      C1500   1.406       .  A
C1500      H1505   1.084       .  S
C1501      C1502   1.424       .  A
C1502      C1503   1.520   1_554  S
C1503      F1507   1.385       .  S
C1503      F1508   1.380       .  S
C1503      F1509   1.383       .  S
C1506      F1510   1.383       .  S
C1506      F1511   1.382       .  S
C1506      F1512   1.384       .  S
C1513      C1514   1.409       .  A
C1513      C1518   1.409   1_545  A
C1513      H1520   1.084   1_544  S
C1515      C1522   1.524       .  S
C1515      C1516   1.401       .  A
C1516      C1517   1.404       .  A
C1516      H1521   1.083       .  S
C1518      C1519   1.517       .  S
C1519      F1523   1.383       .  S
C1519      F1525   1.380       .  S
C1522      F1526   1.381       .  S
C1522      F1528   1.385       .  S
C1529      C1534   1.410       .  A
C1529      H1536   1.083       .  S
C1530      C1531   1.419       .  A
C1531      C1538   1.523       .  S
C1531      C1532   1.401       .  A
C1532      H1537   1.086       .  S
C1533      C1534   1.412       .  A
C1534      C1535   1.515       .  S
C1535      F1539   1.385       .  S
C1535      F1540   1.382       .  S
C1535      F1541   1.383   1_554  S
C1538      F1542   1.381   1_455  S
C1538      F1543   1.383   1_455  S
C1538      F1544   1.379       .  S
C1545      C1546   1.403       .  A
C1545      C1550   1.397       .  A
C1545      H1552   1.085       .  S
C1546      C1547   1.414       .  A
C1547      C1554   1.516       .  S
C1547      C1548   1.409       .  A
C1548      C1549   1.407       .  A
C1548      H1553   1.083       .  S
C1549      C1550   1.419       .  A
C1550      C1551   1.522       .  S
C1551      F1555   1.376       .  S
C1551      F1556   1.382       .  S
C1551      F1557   1.382       .  S
C1554      F1558   1.382       .  S
C1554      F1559   1.383       .  S
C1554      F1560   1.385       .  S
C1561      C1562   1.411   1_556  A
C1561      C1566   1.416   1_556  A
C1561      H1568   1.083       .  S
C1563      C1570   1.525       .  S
C1563      C1564   1.391       .  A
C1564      C1565   1.400       .  A
C1564      H1569   1.084       .  S
C1566      C1567   1.518   1_554  S
C1567      F1571   1.384       .  S
C1567      F1572   1.383   1_556  S
C1567      F1573   1.380       .  S
C1570      F1574   1.383       .  S
C1570      F1575   1.373       .  S
C1570      F1576   1.385       .  S
C1577      C1578   1.406       .  A
C1577      C1582   1.399       .  A
C1577      H1584   1.083       .  S
C1578      C1579   1.418       .  A
C1580      C1581   1.410       .  A
C1580      H1585   1.084   1_554  S
C1582      C1583   1.523       .  S
C1583      F1587   1.384       .  S
C1583      F1588   1.383       .  S
C1583      F1589   1.377       .  S
C1586      F1590   1.382   1_455  S
C1586      F1592   1.384       .  S
C1593      C1594   1.410       .  A
C1594      C1595   1.419       .  A
C1595      C1602   1.524       .  S
C1595      C1596   1.408       .  A
C1596      H1601   1.084       .  S
C1597      C1598   1.412       .  A
C1598      C1599   1.515       .  S
C1599      F1603   1.384       .  S
C1599      F1604   1.382       .  S
C1599      F1605   1.384   1_554  S
C1602      F1606   1.383       .  S
C1602      F1607   1.375       .  S
C1602      F1608   1.379       .  S
C1609      C1610   1.399       .  A
C1609      C1614   1.403       .  A
C1609      H1616   1.083       .  S
C1610      C1611   1.415   1_545  A
C1611      C1618   1.517       .  S
C1611      C1612   1.413       .  A
C1612      C1613   1.409       .  A
C1612      H1617   1.083       .  S
C1613      C1614   1.428   1_565  A
C1614      C1615   1.527       .  S
C1615      F1619   1.385       .  S
C1615      F1620   1.381       .  S
C1615      F1621   1.378       .  S
C1618      F1622   1.382       .  S
C1618      F1623   1.384       .  S
C1618      F1624   1.384       .  S
C1625      C1626   1.394       .  A
C1625      C1630   1.399       .  A
C1625      H1632   1.084       .  S
C1626      C1627   1.415       .  A
C1627      C1634   1.516       .  S
C1627      C1628   1.417       .  A
C1628      C1629   1.410       .  A
C1628      H1633   1.083       .  S
C1629      C1630   1.429       .  A
C1630      C1631   1.522       .  S
C1631      F1635   1.384       .  S
C1631      F1636   1.378       .  S
C1631      F1637   1.383       .  S
C1634      F1638   1.381   1_455  S
C1634      F1639   1.384       .  S
C1634      F1640   1.384       .  S
C1641      C1642   1.398       .  A
C1641      C1646   1.409       .  A
C1641      H1648   1.083   1_455  S
C1642      C1643   1.419   1_545  A
C1643      C1650   1.515       .  S
C1643      C1644   1.407   1_565  A
C1644      C1645   1.405       .  A
C1644      H1649   1.084   1_545  S
C1645      C1646   1.432       .  A
C1646      C1647   1.522       .  S
C1647      F1651   1.381       .  S
C1647      F1652   1.383       .  S
C1647      F1653   1.385   1_455  S
C1650      F3310   1.382       .  S
C1650      F3311   1.383       .  S
C1650      F3312   1.383       .  S
F1654      C3306   1.382       .  S
F1655      C3306   1.383       .  S
F1656      C3306   1.384       .  S
O1657     Cu1665   1.976       .  S
O1657      C1667   1.269       .  A
O1658     Cu1665   1.972       .  S
O1658      C1668   1.274       .  A
O1659     Cu1665   2.053       .  S
O1659      C1669   1.284       .  A
O1660     Cu1665   2.066       .  S
O1660      C1670   1.285       .  A
O1661     Cu1666   1.992       .  S
O1661      C1670   1.274       .  A
O1662     Cu1666   1.971       .  S
O1662      C1669   1.269       .  A
O1663     Cu1666   2.042       .  S
O1663      C1668   1.281       .  A
O1664     Cu1666   2.035       .  S
O1664      C1667   1.284       .  A
Cu1665    Cu1666   2.362       .  S
C1667      C2197   1.492       .  S
C1668      C1845   1.503       .  S
C1669      C2181   1.490       .  S
C1670      C1824   1.491       .  S
N1671      C1676   1.352       .  A
N1671      C1675   1.345       .  A
N1671      H1703   1.041       .  S
N1672      C1680   1.354       .  A
N1673      C1678   1.359       .  A
N1673      C1677   1.354   1_545  A
N1673      H1704   1.041       .  S
N1674      C1682   1.345   1_655  A
C1675      C1683   1.385       .  A
C1675      C1691   1.406       .  A
C1676      C1692   1.415   1_655  A
C1676      C1684   1.388       .  A
C1677      C1685   1.388       .  A
C1677      C1694   1.422       .  A
C1678      C1693   1.422   1_655  A
C1678      C1686   1.386   1_545  A
C1679      C1691   1.429       .  A
C1679      C1687   1.388       .  A
C1680      C1694   1.419       .  A
C1680      C1688   1.385   1_565  A
C1681      C1689   1.384       .  A
C1681      C1692   1.410       .  A
C1682      C1690   1.386       .  A
C1682      C1693   1.405       .  A
C1683      C1684   1.383       .  A
C1683      H1695   1.082       .  S
C1684      H1696   1.082       .  S
C1685      C1686   1.381       .  A
C1685      H1697   1.082       .  S
C1686      H1698   1.081       .  S
C1687      H1699   1.080       .  S
C1688      H1700   1.082       .  S
C1689      H1701   1.080       .  S
C1690      H1702   1.082       .  S
C1691      C2165   1.506       .  S
C1692      C2194   1.494       .  S
C1693      C2130   1.501       .  S
C1694      C2146   1.496       .  S
N1705      C1710   1.354       .  A
N1705      C1709   1.356       .  A
N1705      H1737   1.033       .  S
N1706      C1713   1.353   1_655  A
N1706      C1714   1.351   1_655  A
N1707      C1712   1.358       .  A
N1707      C1711   1.356       .  A
N1707      H1738   1.044       .  S
N1708      C1715   1.354       .  A
N1708      C1716   1.353       .  A
C1709      C1717   1.388       .  A
C1709      C1725   1.416       .  A
C1710      C1726   1.411       .  A
C1710      C1718   1.383       .  A
C1711      C1719   1.387       .  A
C1711      C1728   1.422   1_655  A
C1712      C1727   1.421       .  A
C1712      C1720   1.386       .  A
C1713      C1725   1.414   1_455  A
C1713      C1721   1.385       .  A
C1714      C1728   1.416       .  A
C1714      C1722   1.388       .  A
C1715      C1723   1.383       .  A
C1715      C1726   1.413       .  A
C1716      C1724   1.390       .  A
C1716      C1727   1.420       .  A
C1717      C1718   1.373       .  A
C1717      H1729   1.082       .  S
C1718      H1730   1.080       .  S
C1719      C1720   1.372       .  A
C1719      H2835   1.082       .  S
C1720      H2836   1.082       .  S
C1721      C1722   1.368       .  A
C1721      H1733   1.083       .  S
C1722      H1734   1.082       .  S
C1723      C1724   1.359       .  A
C1723      H1735   1.081       .  S
C1724      H1736   1.083       .  S
C1725      C2178   1.494   1_655  S
C1726      C2101   1.494       .  S
C1727      C2117   1.500       .  S
C1728      C2082   1.489       .  S
H1731      C2271   1.082       .  S
H1732      C2272   1.082       .  S
O1739     Cu1747   2.007       .  S
O1739      C1749   1.278       .  A
O1740     Cu1747   2.030       .  S
O1740      C1750   1.282       .  A
O1741     Cu1747   1.996       .  S
O1741      C1751   1.275       .  A
O1742     Cu1747   2.002       .  S
O1742      C1752   1.275       .  A
O1743     Cu1748   2.010       .  S
O1743      C1752   1.277       .  A
O1744     Cu1748   2.025       .  S
O1744      C1751   1.280       .  A
O1745     Cu1748   2.033       .  S
O1745      C1750   1.277       .  A
O1746     Cu2852   2.020   1_554  S
O1746      C2853   1.279       .  A
Cu1747    Cu1748   2.371       .  S
Cu1748     O2298   2.014       .  S
C1749      O2298   1.278       .  A
C1749      C2133   1.487       .  S
C1750      C1847   1.488       .  S
C1751      C2085   1.478       .  S
C1752      C1821   1.461       .  S
C1753      C1787   1.519       .  S
C1753      C1754   1.524       .  S
C1753      C1759   1.525       .  S
C1753      C1757   1.543       .  S
C1754      H1761   1.084       .  S
C1754      C1755   1.360       .  D
C1755      C1935   1.480       .  S
C1755      C1756   1.552       .  S
C1756      C1760   1.555       .  S
C1756      C1758   1.547       .  S
C1756      H1762   1.110       .  S
C1757      H2315   1.086       .  S
C1757      C1758   1.369       .  D
C1758      C1952   1.485       .  S
C1759      H1764   1.087       .  S
C1759      C1760   1.374       .  D
C1760      C1803   1.487       .  S
H1763      C2861   1.086       .  S
C1765      C1937   1.497       .  S
C1765      C1766   1.515       .  S
C1765      C1771   1.520       .  S
C1765      C1769   1.545       .  S
C1767      C1950   1.464       .  S
C1767      C1768   1.553       .  S
C1768      C1770   1.535       .  S
C1768      H1774   1.111       .  S
C1769      H1775   1.086       .  S
C1770      C1801   1.479       .  S
C1771      H1776   1.085       .  S
C1771      C1772   1.358       .  D
C1772      C1789   1.470       .  S
O1777     Cu1785   2.023       .  S
O1777      C1787   1.280       .  A
O1778     Cu1785   2.013       .  S
O1778      C1788   1.278       .  A
O1779     Cu1785   2.010       .  S
O1779      C1789   1.276       .  A
O1780     Cu1785   1.994       .  S
O1780      C1790   1.277       .  A
O1781     Cu1786   2.010       .  S
O1781      C1790   1.277       .  A
O1782     Cu1786   2.017       .  S
O1782      C1789   1.278       .  A
O1783     Cu1786   2.006       .  S
O1783      C1788   1.277       .  A
O1784     Cu1786   2.027       .  S
O1784      C1787   1.280       .  A
Cu1785    Cu1786   2.366       .  S
C1788      C2066   1.493       .  S
C1790      C2053   1.488       .  S
O1791     Cu1799   2.038       .  S
O1791      C1801   1.281       .  A
O1792     Cu1799   2.037       .  S
O1792      C1802   1.282       .  A
O1793     Cu1799   1.979       .  S
O1793      C1803   1.274       .  A
O1794     Cu1799   1.987       .  S
O1794      C1804   1.272       .  A
O1795     Cu1800   2.044       .  S
O1795      C1804   1.284       .  A
O1796     Cu1800   2.066       .  S
O1796      C1803   1.284       .  A
O1797     Cu1800   1.990       .  S
O1797      C1802   1.273       .  A
O1798     Cu1800   1.995       .  S
O1798      C1801   1.274       .  A
Cu1799    Cu1800   2.367       .  S
C1802      C2034   1.481       .  S
C1804      C2018   1.492       .  S
O1805     Cu1813   2.006       .  S
O1805      C1815   1.276       .  A
O1806     Cu1813   2.001       .  S
O1806      C1816   1.276       .  A
O1807     Cu1813   2.026       .  S
O1807      C1817   1.280       .  A
O1808     Cu1813   2.016       .  S
O1808      C1818   1.279       .  A
O1809     Cu1814   2.010       .  S
O1809      C1818   1.277       .  A
O1810     Cu1814   2.017       .  S
O1810      C1817   1.278       .  A
O1811     Cu1814   2.015       .  S
O1811      C1816   1.279       .  A
O1812     Cu1814   1.998       .  S
O1812      C1815   1.278       .  A
Cu1813    Cu1814   2.370       .  S
C1815      C1819   1.498       .  S
C1816      C2005   1.488       .  S
C1817      C1850   1.482       .  S
C1818      C1986   1.486       .  S
C1819      C1820   1.513       .  S
C1820      H1827   1.089       .  S
C1820      C1821   1.354       .  D
C1822      C1826   1.558       .  S
C1822      C1824   1.548       .  S
C1822      H1828   1.110       .  S
C1823      H1829   1.086       .  S
C1823      C1824   1.376       .  D
C1825      H1830   1.087       .  S
C1825      C1826   1.368       .  D
C1826      C1844   1.482       .  S
O1831     Cu1839   2.028       .  S
O1831      C1841   1.280       .  A
O1832     Cu1839   2.012       .  S
O1832      C1842   1.278       .  A
O1833     Cu1839   1.975       .  S
O1833      C1843   1.274       .  A
O1834     Cu1839   1.991       .  S
O1834      C1844   1.277       .  A
O1835     Cu1840   2.045       .  S
O1835      C1844   1.280       .  A
O1836     Cu1840   2.022       .  S
O1836      C1843   1.279       .  A
O1837     Cu1840   2.013       .  S
O1837      C1842   1.276       .  A
O1838     Cu1840   2.009       .  S
O1838      C1841   1.277       .  A
Cu1839    Cu1840   2.366       .  S
C1841      C1973   1.494       .  S
C1842      C1852   1.467       .  S
C1843      C1954   1.480       .  S
C1845      C1846   1.534       .  S
C1845      C1851   1.519       .  S
C1845      C1849   1.540       .  S
C1846      H1853   1.087       .  S
C1846      C1847   1.364       .  D
C1847      C1848   1.556       .  S
C1848      C1852   1.545       .  S
C1848      C1850   1.552       .  S
C1848      H1854   1.111       .  S
C1849      H1855   1.086       .  S
C1849      C1850   1.377       .  D
C1851      H1856   1.089       .  S
C1851      C1852   1.351       .  D
N1857      C1862   1.354       .  A
N1857      C1861   1.353       .  A
N1857      H1889   1.043       .  S
N1858      C1866   1.349   1_545  A
N1859      C1864   1.348       .  A
N1859      C1863   1.352       .  A
N1859      H1890   1.042   1_545  S
N1860      C1868   1.351       .  A
C1861      C1869   1.386       .  A
C1861      C1877   1.418       .  A
C1862      C1878   1.422       .  A
C1862      C1870   1.388       .  A
C1863      C1871   1.388       .  A
C1863      C1880   1.418       .  A
C1864      C1879   1.413       .  A
C1864      C1872   1.386       .  A
C1865      C1877   1.406       .  A
C1865      C1873   1.386       .  A
C1866      C1880   1.413   1_565  A
C1866      C1874   1.386       .  A
C1867      C1875   1.386       .  A
C1867      C1878   1.413       .  A
C1868      C1876   1.387   1_545  A
C1868      C1879   1.416       .  A
C1869      C1870   1.386       .  A
C1869      H2985   1.082       .  S
C1870      H2986   1.079       .  S
C1871      C1872   1.383       .  A
C1871      H1883   1.082       .  S
C1872      H1884   1.082       .  S
C1873      H1885   1.082       .  S
C1874      H1886   1.082       .  S
C1875      H1887   1.082       .  S
C1876      H1888   1.082       .  S
C1877      C2069   1.493       .  S
C1878      C1970   1.506       .  S
C1879      C1989   1.493       .  S
C1880      C2021   1.500       .  S
H1881      C2421   1.082       .  S
H1882      C2422   1.080       .  S
N1891      C1896   1.348       .  A
N1891      C1895   1.348       .  A
N1891      H1923   1.043       .  S
N1892      C1899   1.351       .  A
N1892      C1900   1.347       .  A
N1893      C1898   1.355       .  A
N1893      C1897   1.352       .  A
N1893      H1924   1.044       .  S
N1894      C1901   1.347       .  A
N1894      C1902   1.346       .  A
C1895      C1903   1.386       .  A
C1895      C1911   1.411       .  A
C1896      C1912   1.409       .  A
C1896      C1904   1.387       .  A
C1897      C1905   1.388       .  A
C1897      C1914   1.415       .  A
C1898      C1913   1.415       .  A
C1898      C1906   1.387       .  A
C1899      C1911   1.416       .  A
C1899      C1907   1.385       .  A
C1900      C1914   1.409       .  A
C1900      C1908   1.387       .  A
C1901      C1909   1.385       .  A
C1901      C1912   1.410       .  A
C1902      C1910   1.387       .  A
C1902      C1913   1.407       .  A
C1903      C1904   1.381       .  A
C1903      H1915   1.082       .  S
C1904      H1916   1.082       .  S
C1905      C1906   1.379       .  A
C1905      H1917   1.082       .  S
C1906      H1918   1.082       .  S
C1907      C1908   1.380       .  A
C1907      H1919   1.081       .  S
C1908      H1920   1.082       .  S
C1909      C1910   1.376       .  A
C1909      H1921   1.081       .  S
C1910      H1922   1.083       .  S
C1911      C2050   1.497       .  S
C1912      C1957   1.486       .  S
C1913      C2002   1.494       .  S
C1914      C2037   1.486       .  S
O1925     Cu1933   2.038       .  S
O1925      C1935   1.281       .  A
O1926     Cu1933   2.028       .  S
O1926      C1936   1.280       .  A
O1927     Cu1933   1.989       .  S
O1927      C1937   1.274       .  A
O1928     Cu1933   1.993       .  S
O1928      C1938   1.277       .  A
O1929     Cu1934   2.004       .  S
O1929      C1938   1.277       .  A
O1930     Cu1934   2.007       .  S
O1930      C1937   1.279       .  A
O1931     Cu1934   2.001       .  S
O1931      C1936   1.277       .  A
O1932     Cu1934   2.016       .  S
O1932      C1935   1.277       .  A
Cu1933    Cu1934   2.371       .  S
C1936      C2162   1.485       .  S
C1938      C2098   1.475       .  S
O1939     Cu1947   2.014       .  S
O1939      C1949   1.279       .  A
O1940     Cu1947   2.003       .  S
O1940      C1950   1.280       .  A
O1941     Cu1947   2.012       .  S
O1941      C1951   1.276       .  A
O1942     Cu1947   2.022       .  S
O1942      C1952   1.277       .  A
O1943     Cu1948   2.029       .  S
O1943      C1952   1.281       .  A
O1944     Cu1948   2.044       .  S
O1944      C1951   1.283       .  A
O1945     Cu1948   1.993       .  S
O1945      C1950   1.272       .  A
O1946     Cu1948   1.987       .  S
O1946      C1949   1.273       .  A
Cu1947    Cu1948   2.369       .  S
C1949      C2114   1.480       .  S
C1951      C2149   1.490       .  S
C1953      C3058   1.407       .  A
C1953      C1958   1.397       .  A
C1953      H1960   1.082   1_554  S
C1954      C2505   1.407       .  A
C1954      C2507   1.415       .  A
C1955      C3066   1.515       .  S
C1955      C3058   1.415       .  A
C1955      C1956   1.412       .  A
C1956      C1957   1.408       .  A
C1956      H1961   1.083       .  S
C1957      C1958   1.412       .  A
C1958      C1959   1.522       .  S
C1959      F1963   1.385       .  S
C1959      F1964   1.382       .  S
C1959      F1965   1.380       .  S
C1962      C2507   1.515       .  S
C1962      F2518   1.382       .  S
C1962      F1967   1.383       .  S
C1962      F1968   1.385       .  S
F1966      C3066   1.382       .  S
C1969      C1970   1.408       .  A
C1969      C1974   1.403       .  A
C1969      H1976   1.083       .  S
C1970      C1971   1.422       .  A
C1971      C3076   1.413       .  A
C1972      C2523   1.413       .  A
C1972      C1973   1.407       .  A
C1972      H1977   1.084       .  S
C1973      C2526   1.423       .  A
C1974      C1975   1.522       .  S
C1974      C3077   1.421       .  A
C1975      F1979   1.385       .  S
C1975      F1980   1.383       .  S
C1975      F3085   1.380       .  S
C1978      F1982   1.381       .  S
C1978      F1983   1.383   1_554  S
C1978      F3088   1.384   1_554  S
F1981      C2527   1.380       .  S
F1984      C2530   1.384       .  S
C1985      C1986   1.407   1_545  A
C1985      C1990   1.408       .  A
C1985      H1992   1.084       .  S
C1986      C1987   1.422       .  A
C1987      C1994   1.521       .  S
C1987      C1988   1.403       .  A
C1988      C1989   1.401   1_565  A
C1988      H1993   1.083       .  S
C1989      C1990   1.419       .  A
C1990      C1991   1.518       .  S
C1991      F1995   1.383       .  S
C1991      F1996   1.383       .  S
C1994      F1998   1.379       .  S
C1994      F1999   1.382       .  S
C1994      F2000   1.385       .  S
C2001      C2002   1.402       .  A
C2001      C2006   1.401       .  A
C2001      H2008   1.083       .  S
C2002      C2003   1.414       .  A
C2003      C2010   1.518       .  S
C2003      C2004   1.413       .  A
C2004      C2005   1.409       .  A
C2004      H2009   1.083       .  S
C2005      C2006   1.424       .  A
C2006      C2007   1.524       .  S
C2007      F2011   1.385       .  S
C2007      F2012   1.381       .  S
C2007      F2013   1.383       .  S
C2010      F2014   1.380       .  S
C2010      F2015   1.383       .  S
C2010      F2016   1.384       .  S
C2017      C2018   1.404   1_545  A
C2017      C2022   1.409       .  A
C2017      H2024   1.084       .  S
C2018      C2019   1.428       .  A
C2019      C2026   1.522       .  S
C2019      C2020   1.405       .  A
C2020      C2021   1.401   1_565  A
C2020      H2025   1.083       .  S
C2021      C2022   1.423       .  A
C2022      C2023   1.518       .  S
C2023      F2027   1.383       .  S
C2023      F2029   1.383       .  S
C2026      F2030   1.383       .  S
C2026      F2031   1.380       .  S
C2026      F2032   1.385       .  S
C2033      C2034   1.407       .  A
C2033      C2038   1.412       .  A
C2033      H2040   1.083       .  S
C2034      C2035   1.423       .  A
C2035      C2042   1.520       .  S
C2035      C2036   1.397       .  A
C2036      C2037   1.398       .  A
C2036      H2041   1.084       .  S
C2037      C2038   1.413       .  A
C2038      C2039   1.515       .  S
C2039      F2043   1.385       .  S
C2039      F2044   1.383       .  S
C2039      F2045   1.382       .  S
C2042      F2046   1.381       .  S
C2042      F2047   1.375       .  S
C2042      F2048   1.386       .  S
C2049      C2050   1.401       .  A
C2049      C3158   1.404       .  A
C2049      H2056   1.083       .  S
C2050      C2051   1.419       .  A
C2051      C2058   1.519       .  S
C2051      C2052   1.410       .  A
C2052      C3157   1.411       .  A
C2052      H2057   1.084       .  S
C2053      C2604   1.409       .  A
C2053      C2054   1.423       .  A
C2054      C2055   1.520       .  S
C2054      C2601   1.403       .  A
C2055      F2059   1.385       .  S
C2055      F2060   1.382       .  S
C2055      F2061   1.384       .  S
C2058      F2062   1.383       .  S
C2058      F2063   1.382       .  S
C2058      F2064   1.384       .  S
C2065      C2066   1.411       .  A
C2065      C2070   1.410       .  A
C2065      H2072   1.084       .  S
C2066      C2619   1.425       .  A
C2067      C2074   1.522       .  S
C2067      C3170   1.424       .  A
C2067      C2068   1.402       .  A
C2068      C2069   1.403       .  A
C2068      H2073   1.083       .  S
C2069      C3174   1.416       .  A
C2070      C2071   1.518       .  S
C2070      C2621   1.416       .  A
C2071      F2075   1.384       .  S
C2071      F2628   1.383       .  S
C2071      F2077   1.382       .  S
C2074      F2078   1.379       .  S
C2074      F3183   1.383       .  S
C2074      F2080   1.385       .  S
F2076      C3175   1.383   1_556  S
F2079      C2626   1.383       .  S
C2081      C2634   1.408       .  A
C2081      C2086   1.412       .  A
C2081      H2088   1.083       .  S
C2082      C3185   1.409       .  A
C2082      C2083   1.418       .  A
C2083      C2090   1.521       .  S
C2083      C2084   1.400       .  A
C2084      C3189   1.402       .  A
C2084      H2089   1.086       .  S
C2085      C2636   1.403       .  A
C2085      C2086   1.413       .  A
C2086      C2087   1.516       .  S
C2087      F2091   1.385       .  S
C2087      F2092   1.382       .  S
C2087      F2093   1.383       .  S
C2090      F2094   1.380   1_455  S
C2090      F2095   1.383   1_455  S
C2090      F2096   1.380       .  S
C2097      C2098   1.403       .  A
C2097      C2102   1.399       .  A
C2097      H2104   1.085       .  S
C2098      C2099   1.412       .  A
C2099      C2106   1.516       .  S
C2099      C2100   1.410       .  A
C2100      C2101   1.409       .  A
C2100      H2105   1.083       .  S
C2101      C2102   1.420       .  A
C2102      C2103   1.520       .  S
C2103      F2107   1.372       .  S
C2103      F2108   1.382       .  S
C2103      F2109   1.383       .  S
C2106      F2110   1.382       .  S
C2106      F2111   1.384       .  S
C2106      F2112   1.384       .  S
C2113      C2114   1.409       .  A
C2113      C2118   1.414       .  A
C2113      H2120   1.083       .  S
C2114      C2667   1.421       .  A
C2115      C2122   1.526       .  S
C2115      C3218   1.421       .  A
C2115      C2116   1.394       .  A
C2116      C2117   1.401       .  A
C2116      H2121   1.081       .  S
C2117      C3222   1.417       .  A
C2118      C2119   1.516       .  S
C2118      C2669   1.416       .  A
C2119      F2123   1.385       .  S
C2119      F2124   1.383       .  S
C2119      F2125   1.380       .  S
C2122      F2126   1.384       .  S
C2122      F2127   1.379       .  S
C2122      F2128   1.385       .  S
C2129      C2130   1.407   1_565  A
C2129      C2134   1.402       .  A
C2129      H2136   1.082       .  S
C2130      C2131   1.418       .  A
C2131      C3242   1.517       .  S
C2131      C3236   1.410       .  A
C2132      C2683   1.412       .  A
C2132      C2133   1.410   1_545  A
C2132      H2137   1.084       .  S
C2133      C2686   1.421       .  A
C2134      C2135   1.523       .  S
C2134      C3237   1.421       .  A
C2135      F2139   1.383       .  S
C2135      F2140   1.383       .  S
C2135      F2141   1.380       .  S
C2138      C2683   1.517       .  S
C2138      F2142   1.382       .  S
C2138      F2695   1.383       .  S
C2138      F2144   1.384       .  S
F2143      C3242   1.383   1_556  S
C2145      C2146   1.410   1_545  A
C2145      C3254   1.417   1_545  A
C2145      H3256   1.083       .  S
C2146      C2147   1.419       .  A
C2147      C2154   1.521       .  S
C2147      C2148   1.405       .  A
C2148      C3253   1.401       .  A
C2148      H2153   1.083       .  S
C2149      C2700   1.404       .  A
C2149      C2150   1.415       .  A
C2150      C2151   1.515   1_565  S
C2150      C2697   1.416   1_565  A
C2151      F2155   1.385       .  S
C2151      F2156   1.382       .  S
C2151      F2157   1.383       .  S
H2152      C2697   1.083       .  S
C2154      F2158   1.380       .  S
C2154      F2159   1.379       .  S
C2154      F2160   1.384       .  S
C2161      C2162   1.399       .  A
C2161      C2166   1.404       .  A
C2161      H2168   1.083       .  S
C2162      C2163   1.415       .  A
C2163      C2170   1.515       .  S
C2163      C2164   1.415       .  A
C2164      C2165   1.409       .  A
C2164      H2169   1.083       .  S
C2165      C2166   1.429       .  A
C2166      C2167   1.526       .  S
C2167      F2171   1.385       .  S
C2167      F2172   1.382       .  S
C2167      F2173   1.379       .  S
C2170      F2174   1.382       .  S
C2170      F2175   1.384       .  S
C2170      F2176   1.384       .  S
C2177      C2178   1.396       .  A
C2177      C2182   1.398       .  A
C2177      H2184   1.084       .  S
C2178      C2179   1.416       .  A
C2179      C2186   1.517       .  S
C2179      C2180   1.415       .  A
C2180      C2181   1.408       .  A
C2180      H2185   1.083       .  S
C2181      C2182   1.429       .  A
C2182      C2183   1.524       .  S
C2183      F2187   1.384       .  S
C2183      F2188   1.378       .  S
C2183      F2189   1.383       .  S
C2186      F2190   1.381   1_455  S
C2186      F2191   1.383       .  S
C2186      F2192   1.385       .  S
C2193      C2194   1.399       .  A
C2193      C2198   1.407       .  A
C2193      H2200   1.083   1_455  S
C2194      C2195   1.420       .  A
C2195      C2202   1.516       .  S
C2195      C2196   1.404       .  A
C2196      C2197   1.403       .  A
C2196      H2201   1.085       .  S
C2197      C2198   1.431       .  A
C2198      C2199   1.523       .  S
C2199      F2203   1.382       .  S
C2199      F2204   1.383       .  S
C2199      F2205   1.386   1_455  S
O2209     Cu2217   1.980       .  S
O2209      C2219   1.270       .  A
O2210     Cu2217   1.971       .  S
O2210      C2220   1.274       .  A
O2211     Cu2217   2.054       .  S
O2211      C2221   1.284       .  A
O2212     Cu2217   2.062       .  S
O2212      C2222   1.284       .  A
O2213     Cu2218   1.994       .  S
O2213      C2222   1.275       .  A
O2214     Cu2218   1.972       .  S
O2214      C2221   1.270       .  A
O2215     Cu2218   2.037       .  S
O2215      C2220   1.281       .  A
O2216     Cu2218   2.038       .  S
O2216      C2219   1.284       .  A
Cu2217    Cu2218   2.363       .  S
C2219      C2749   1.492       .  S
C2220      C2397   1.500       .  S
C2221      C2733   1.491       .  S
C2222      C2376   1.490       .  S
N2223      C2228   1.353       .  A
N2223      C2227   1.346       .  A
N2223      H2255   1.039       .  S
N2224      C2232   1.355       .  A
N2225      C2230   1.359       .  A
N2225      C2229   1.356       .  A
N2225      H2256   1.040       .  S
N2226      C2234   1.347   1_655  A
C2227      C2235   1.386       .  A
C2227      C2243   1.409       .  A
C2228      C2244   1.418   1_655  A
C2228      C2236   1.388       .  A
C2229      C2237   1.389   1_545  A
C2229      C2246   1.427   1_545  A
C2230      C2245   1.424   1_655  A
C2230      C2238   1.386       .  A
C2231      C2243   1.426       .  A
C2231      C2239   1.387       .  A
C2232      C2246   1.422       .  A
C2232      C2240   1.386       .  A
C2233      C2241   1.385       .  A
C2233      C2244   1.412       .  A
C2234      C2242   1.387       .  A
C2234      C2245   1.408       .  A
C2235      C2236   1.384       .  A
C2235      H2247   1.082       .  S
C2236      H2248   1.082       .  S
C2237      C2238   1.380   1_565  A
C2237      H2249   1.082       .  S
C2238      H2250   1.081       .  S
C2239      H2251   1.081       .  S
C2240      H2252   1.081   1_565  S
C2241      H2253   1.080       .  S
C2242      H2254   1.082       .  S
C2243      C2717   1.502       .  S
C2244      C2746   1.496       .  S
C2245      C2682   1.501       .  S
C2246      C2698   1.503       .  S
N2257      C2262   1.353       .  A
N2257      C2261   1.355       .  A
N2257      H2289   1.035       .  S
N2258      C2265   1.353   1_655  A
N2258      C2266   1.352   1_655  A
N2259      C2264   1.357       .  A
N2259      C2263   1.356       .  A
N2259      H2290   1.038       .  S
N2260      C2267   1.353       .  A
N2260      C2268   1.352       .  A
C2261      C2269   1.388       .  A
C2261      C2277   1.415       .  A
C2262      C2278   1.409       .  A
C2262      C2270   1.384       .  A
C2263      C2271   1.388       .  A
C2263      C2280   1.424   1_655  A
C2264      C2279   1.421       .  A
C2264      C2272   1.386       .  A
C2265      C2277   1.415   1_455  A
C2265      C2273   1.385       .  A
C2266      C2280   1.418       .  A
C2266      C2274   1.389       .  A
C2267      C2275   1.383       .  A
C2267      C2278   1.410       .  A
C2268      C2276   1.391       .  A
C2268      C2279   1.420       .  A
C2269      C2270   1.373       .  A
C2269      H2281   1.082       .  S
C2270      H2282   1.081       .  S
C2271      C2272   1.373       .  A
C2273      C2274   1.370       .  A
C2273      H2285   1.083       .  S
C2274      H2286   1.082       .  S
C2275      C2276   1.358       .  A
C2275      H2287   1.082       .  S
C2276      H2288   1.083       .  S
C2277      C2730   1.494   1_655  S
C2278      C2653   1.488       .  S
C2279      C2669   1.495       .  S
C2280      C2634   1.491       .  S
H2283      C2823   1.081       .  S
H2284      C2824   1.082       .  S
O2291     Cu2299   2.014       .  S
O2291      C2301   1.278       .  A
O2292     Cu2299   2.032       .  S
O2292      C2302   1.283       .  A
O2293     Cu2299   1.990       .  S
O2293      C2303   1.275       .  A
O2294     Cu2299   2.000       .  S
O2294      C2304   1.275       .  A
O2295     Cu2300   2.005       .  S
O2295      C2304   1.277       .  A
O2296     Cu2300   2.016       .  S
O2296      C2303   1.279       .  A
O2297     Cu2300   2.028       .  S
O2297      C2302   1.277       .  A
Cu2299    Cu2300   2.371       .  S
Cu2300     O2850   2.012       .  S
C2301      O2850   1.277       .  A
C2301      C2685   1.491       .  S
C2302      C2399   1.487       .  S
C2303      C2637   1.473       .  S
C2304      C2373   1.459       .  S
C2305      C2339   1.515       .  S
C2305      C2306   1.526       .  S
C2305      C2311   1.523       .  S
C2305      C2309   1.542       .  S
C2306      H2313   1.083       .  S
C2306      C2307   1.361       .  D
C2307      C2487   1.479       .  S
C2307      C2308   1.550       .  S
C2308      C2312   1.554       .  S
C2308      C2310   1.544       .  S
C2308      H2314   1.111       .  S
C2309      H2867   1.086       .  S
C2309      C2310   1.367       .  D
C2310      C2504   1.479       .  S
C2311      H2316   1.087       .  S
C2311      C2312   1.373       .  D
C2312      C2355   1.484       .  S
C2317      C2489   1.496       .  S
C2317      C2318   1.513       .  S
C2317      C2323   1.523       .  S
C2317      C2321   1.543       .  S
C2319      C2502   1.469       .  S
C2319      C2320   1.558       .  S
C2320      C2322   1.536       .  S
C2320      H2326   1.111       .  S
C2321      H2327   1.086       .  S
C2322      C2353   1.480       .  S
C2323      H2328   1.083       .  S
C2323      C2324   1.358       .  D
C2324      C2341   1.472       .  S
O2329     Cu2337   2.020       .  S
O2329      C2339   1.280       .  A
O2330     Cu2337   2.013       .  S
O2330      C2340   1.278       .  A
O2331     Cu2337   2.017       .  S
O2331      C2341   1.277       .  A
O2332     Cu2337   2.002       .  S
O2332      C2342   1.278       .  A
O2333     Cu2338   2.014       .  S
O2333      C2342   1.278       .  A
O2334     Cu2338   2.015       .  S
O2334      C2341   1.278       .  A
O2335     Cu2338   1.998       .  S
O2335      C2340   1.277       .  A
O2336     Cu2338   2.020       .  S
O2336      C2339   1.279       .  A
Cu2337    Cu2338   2.366       .  S
C2340      C2618   1.491       .  S
C2342      C2605   1.492       .  S
O2343     Cu2351   2.045       .  S
O2343      C2353   1.282       .  A
O2344     Cu2351   2.043       .  S
O2344      C2354   1.282       .  A
O2345     Cu2351   1.975       .  S
O2345      C2355   1.274       .  A
O2346     Cu2351   1.990       .  S
O2346      C2356   1.272       .  A
O2347     Cu2352   2.049       .  S
O2347      C2356   1.285       .  A
O2348     Cu2352   2.061       .  S
O2348      C2355   1.283       .  A
O2349     Cu2352   1.983       .  S
O2349      C2354   1.272       .  A
O2350     Cu2352   1.989       .  S
O2350      C2353   1.274       .  A
Cu2351    Cu2352   2.366       .  S
C2354      C2586   1.484       .  S
C2356      C2570   1.495       .  S
O2357     Cu2365   2.006       .  S
O2357      C2367   1.276       .  A
O2358     Cu2365   2.002       .  S
O2358      C2368   1.276       .  A
O2359     Cu2365   2.027       .  S
O2359      C2369   1.280       .  A
O2360     Cu2365   2.015       .  S
O2360      C2370   1.280       .  A
O2361     Cu2366   2.004       .  S
O2361      C2370   1.275       .  A
O2362     Cu2366   2.009       .  S
O2362      C2369   1.276       .  A
O2363     Cu2366   2.015       .  S
O2363      C2368   1.279       .  A
O2364     Cu2366   2.001       .  S
O2364      C2367   1.279       .  A
Cu2365    Cu2366   2.371       .  S
C2367      C2371   1.500       .  S
C2368      C2557   1.487       .  S
C2369      C2402   1.479       .  S
C2370      C2538   1.484       .  S
C2371      C2372   1.514       .  S
C2372      H2379   1.089       .  S
C2372      C2373   1.354       .  D
C2374      C2378   1.556       .  S
C2374      C2376   1.548       .  S
C2374      H2380   1.110       .  S
C2375      H2381   1.086       .  S
C2375      C2376   1.376       .  D
C2377      H2382   1.087       .  S
C2377      C2378   1.368       .  D
C2378      C2396   1.479       .  S
O2383     Cu2391   2.037       .  S
O2383      C2393   1.281       .  A
O2384     Cu2391   2.019       .  S
O2384      C2394   1.279       .  A
O2385     Cu2391   1.975       .  S
O2385      C2395   1.274       .  A
O2386     Cu2391   1.989       .  S
O2386      C2396   1.277       .  A
O2387     Cu2392   2.040       .  S
O2387      C2396   1.279       .  A
O2388     Cu2392   2.024       .  S
O2388      C2395   1.279       .  A
O2389     Cu2392   2.021       .  S
O2389      C2394   1.277       .  A
O2390     Cu2392   2.016       .  S
O2390      C2393   1.278       .  A
Cu2391    Cu2392   2.365       .  S
C2393      C2525   1.499       .  S
C2394      C2404   1.473       .  S
C2395      C2506   1.481       .  S
C2397      C2398   1.533       .  S
C2397      C2403   1.521       .  S
C2397      C2401   1.538       .  S
C2398      H2405   1.087       .  S
C2398      C2399   1.365       .  D
C2399      C2400   1.556       .  S
C2400      C2404   1.547       .  S
C2400      C2402   1.551       .  S
C2400      H2406   1.111       .  S
C2401      H2407   1.086       .  S
C2401      C2402   1.375       .  D
C2403      H2408   1.089       .  S
C2403      C2404   1.352       .  D
N2409      C2414   1.355       .  A
N2409      C2413   1.353       .  A
N2409      H2441   1.043       .  S
N2410      C2418   1.350   1_545  A
N2411      C2416   1.349       .  A
N2411      C2415   1.353       .  A
N2411      H2442   1.041   1_545  S
N2412      C2420   1.352   1_545  A
C2413      C2421   1.386       .  A
C2413      C2429   1.419       .  A
C2414      C2430   1.421       .  A
C2414      C2422   1.387       .  A
C2415      C2423   1.388       .  A
C2415      C2432   1.420       .  A
C2416      C2431   1.414       .  A
C2416      C2424   1.387       .  A
C2417      C2429   1.407       .  A
C2417      C2425   1.386       .  A
C2418      C2432   1.413   1_565  A
C2418      C2426   1.386       .  A
C2419      C2427   1.386       .  A
C2419      C2430   1.415       .  A
C2420      C2428   1.387       .  A
C2420      C2431   1.417   1_565  A
C2421      C2422   1.384       .  A
C2423      C2424   1.383       .  A
C2423      H2435   1.082       .  S
C2424      H2436   1.082       .  S
C2425      H2437   1.082       .  S
C2426      H2438   1.082       .  S
C2427      H2439   1.082       .  S
C2428      H2440   1.082       .  S
C2429      C2621   1.494       .  S
C2430      C2522   1.508       .  S
C2431      C2541   1.494   1_545  S
C2432      C2573   1.501       .  S
H2433      C2973   1.082       .  S
H2434      C2974   1.080       .  S
N2443      C2448   1.347       .  A
N2443      C2447   1.346       .  A
N2443      H2475   1.043       .  S
N2444      C2451   1.350       .  A
N2444      C2452   1.347       .  A
N2445      C2450   1.354       .  A
N2445      C2449   1.353       .  A
N2445      H2476   1.044       .  S
N2446      C2453   1.348       .  A
N2446      C2454   1.346       .  A
C2447      C2455   1.387       .  A
C2447      C2463   1.407       .  A
C2448      C2464   1.405       .  A
C2448      C2456   1.386       .  A
C2449      C2457   1.388       .  A
C2449      C2466   1.415       .  A
C2450      C2465   1.416       .  A
C2450      C2458   1.387       .  A
C2451      C2463   1.415       .  A
C2451      C2459   1.385       .  A
C2452      C2466   1.410       .  A
C2452      C2460   1.387       .  A
C2453      C2461   1.383       .  A
C2453      C2464   1.410       .  A
C2454      C2462   1.388       .  A
C2454      C2465   1.408       .  A
C2455      C2456   1.379       .  A
C2455      H2467   1.082       .  S
C2456      H2468   1.082       .  S
C2457      C2458   1.380       .  A
C2457      H2469   1.082       .  S
C2458      H2470   1.082       .  S
C2459      C2460   1.380       .  A
C2459      H2471   1.080       .  S
C2460      H2472   1.082       .  S
C2461      C2462   1.375       .  A
C2461      H2473   1.079       .  S
C2462      H2474   1.083       .  S
C2463      C2602   1.492       .  S
C2464      C2509   1.486       .  S
C2465      C2554   1.492       .  S
C2466      C2589   1.491       .  S
O2477     Cu2485   2.034       .  S
O2477      C2487   1.280       .  A
O2478     Cu2485   2.031       .  S
O2478      C2488   1.280       .  A
O2479     Cu2485   1.992       .  S
O2479      C2489   1.275       .  A
O2480     Cu2485   1.996       .  S
O2480      C2490   1.277       .  A
O2481     Cu2486   1.997       .  S
O2481      C2490   1.275       .  A
O2482     Cu2486   2.001       .  S
O2482      C2489   1.278       .  A
O2483     Cu2486   2.013       .  S
O2483      C2488   1.279       .  A
O2484     Cu2486   2.016       .  S
O2484      C2487   1.277       .  A
Cu2485    Cu2486   2.372       .  S
C2488      C2714   1.488       .  S
C2490      C2650   1.470       .  S
O2491     Cu2499   2.018       .  S
O2491      C2501   1.280       .  A
O2492     Cu2499   2.010       .  S
O2492      C2502   1.281       .  A
O2493     Cu2499   2.004       .  S
O2493      C2503   1.275       .  A
O2494     Cu2499   2.014       .  S
O2494      C2504   1.276       .  A
O2495     Cu2500   2.021       .  S
O2495      C2504   1.280       .  A
O2496     Cu2500   2.035       .  S
O2496      C2503   1.282       .  A
O2497     Cu2500   1.998       .  S
O2497      C2502   1.272       .  A
O2498     Cu2500   1.989       .  S
O2498      C2501   1.274       .  A
Cu2499    Cu2500   2.369       .  S
C2501      C2666   1.481       .  S
C2503      C2701   1.485       .  S
C2505      C2510   1.398       .  A
C2505      H2512   1.083       .  S
C2506      C3057   1.408       .  A
C2506      C3059   1.415       .  A
C2507      C2508   1.411       .  A
C2508      C2509   1.407       .  A
C2508      H2513   1.083       .  S
C2509      C2510   1.414       .  A
C2510      C2511   1.523       .  S
C2511      F2515   1.385       .  S
C2511      F2516   1.382       .  S
C2511      F2517   1.380       .  S
C2514      C3059   1.516       .  S
C2514      F3070   1.382       .  S
C2514      F2519   1.383       .  S
C2514      F2520   1.385       .  S
C2521      C2522   1.407       .  A
C2521      C2526   1.403       .  A
C2521      H2528   1.083       .  S
C2522      C2523   1.424       .  A
C2524      C3075   1.416       .  A
C2524      C2525   1.409       .  A
C2524      H2529   1.084       .  S
C2525      C3078   1.422       .  A
C2526      C2527   1.522       .  S
C2527      F2531   1.384       .  S
C2527      F2532   1.383       .  S
C2530      F2534   1.381       .  S
C2530      F2535   1.383   1_565  S
F2533      C3079   1.379       .  S
F2536      C3082   1.384       .  S
C2537      C2538   1.404       .  A
C2537      C2542   1.407   1_565  A
C2537      H2544   1.085   1_565  S
C2538      C2539   1.422       .  A
C2539      C2546   1.520       .  S
C2539      C2540   1.403       .  A
C2540      C2541   1.402       .  A
C2540      H2545   1.083       .  S
C2541      C2542   1.420   1_565  A
C2542      C2543   1.516       .  S
C2543      F2547   1.384       .  S
C2543      F2548   1.383       .  S
C2546      F2550   1.379       .  S
C2546      F2551   1.383       .  S
C2546      F2552   1.385       .  S
C2553      C2554   1.401       .  A
C2553      C2558   1.399       .  A
C2553      H2560   1.083       .  S
C2554      C2555   1.413       .  A
C2555      C2562   1.517       .  S
C2555      C2556   1.412       .  A
C2556      C2557   1.409       .  A
C2556      H2561   1.083       .  S
C2557      C2558   1.424       .  A
C2558      C2559   1.523       .  S
C2559      F2563   1.385       .  S
C2559      F2564   1.380       .  S
C2559      F2565   1.383       .  S
C2562      F2566   1.381       .  S
C2562      F2567   1.383       .  S
C2562      F2568   1.384       .  S
C2569      C2570   1.405       .  A
C2569      C2574   1.411   1_565  A
C2569      H2576   1.084   1_565  S
C2570      C2571   1.428       .  A
C2571      C2578   1.521       .  S
C2571      C2572   1.405       .  A
C2572      C2573   1.400   1_565  A
C2572      H2577   1.083       .  S
C2573      C2574   1.423       .  A
C2574      C2575   1.518       .  S
C2575      F2579   1.384       .  S
C2575      F2581   1.383       .  S
C2578      F2582   1.383       .  S
C2578      F2583   1.380       .  S
C2578      F2584   1.385       .  S
C2585      C2586   1.407       .  A
C2585      C2590   1.414       .  A
C2585      H2592   1.083       .  S
C2586      C2587   1.424       .  A
C2587      C2594   1.522       .  S
C2587      C2588   1.399       .  A
C2588      C2589   1.399       .  A
C2588      H2593   1.083       .  S
C2589      C2590   1.415       .  A
C2590      C2591   1.516       .  S
C2591      F2595   1.384       .  S
C2591      F2596   1.384       .  S
C2591      F2597   1.381       .  S
C2594      F2598   1.382       .  S
C2594      F2599   1.377       .  S
C2594      F2600   1.385       .  S
C2601      C2602   1.404       .  A
C2601      H2608   1.083       .  S
C2602      C2603   1.417       .  A
C2603      C2610   1.518       .  S
C2603      C2604   1.406       .  A
C2604      H2609   1.084       .  S
C2605      C3156   1.409       .  A
C2605      C2606   1.425       .  A
C2606      C2607   1.521       .  S
C2606      C3153   1.403       .  A
C2607      F2611   1.385       .  S
C2607      F2612   1.380       .  S
C2607      F2613   1.383       .  S
C2610      F2614   1.383       .  S
C2610      F2615   1.382       .  S
C2610      F2616   1.383       .  S
C2617      C2618   1.410       .  A
C2617      C2622   1.408       .  A
C2617      H2624   1.084       .  S
C2618      C3171   1.424       .  A
C2619      C2626   1.522       .  S
C2619      C2620   1.403       .  A
C2620      C2621   1.403       .  A
C2620      H2625   1.083       .  S
C2622      C2623   1.517       .  S
C2622      C3173   1.416       .  A
C2623      F2627   1.384       .  S
C2623      F3180   1.382       .  S
C2623      F2629   1.382       .  S
C2626      F2630   1.381       .  S
C2626      F2632   1.385       .  S
F2631      C3178   1.383       .  S
C2633      C3186   1.410       .  A
C2633      C2638   1.412       .  A
C2633      H2640   1.083       .  S
C2634      C2635   1.418       .  A
C2635      C2642   1.521       .  S
C2635      C2636   1.401       .  A
C2636      H2641   1.086       .  S
C2637      C3188   1.401       .  A
C2637      C2638   1.412       .  A
C2638      C2639   1.517       .  S
C2639      F2643   1.384       .  S
C2639      F2644   1.382       .  S
C2639      F2645   1.384       .  S
C2642      F2646   1.380   1_455  S
C2642      F2647   1.383   1_455  S
C2642      F2648   1.380       .  S
C2649      C2650   1.402       .  A
C2649      C2654   1.396       .  A
C2649      H2656   1.085       .  S
C2650      C2651   1.413       .  A
C2651      C2658   1.517       .  S
C2651      C2652   1.410       .  A
C2652      C2653   1.407       .  A
C2652      H2657   1.083       .  S
C2653      C2654   1.418       .  A
C2654      C2655   1.522       .  S
C2655      F2659   1.376       .  S
C2655      F2660   1.382       .  S
C2655      F2661   1.382       .  S
C2658      F2662   1.382       .  S
C2658      F2663   1.384       .  S
C2658      F2664   1.385       .  S
C2665      C2666   1.410       .  A
C2665      C2670   1.414       .  A
C2665      H2672   1.083       .  S
C2666      C3219   1.423       .  A
C2667      C2674   1.524       .  S
C2667      C2668   1.392       .  A
C2668      C2669   1.400       .  A
C2668      H2673   1.084       .  S
C2670      C2671   1.517       .  S
C2670      C3221   1.415       .  A
C2671      F2675   1.384       .  S
C2671      F2676   1.384       .  S
C2671      F2677   1.380       .  S
C2674      F2678   1.383       .  S
C2674      F2679   1.374       .  S
C2674      F2680   1.385       .  S
C2681      C2682   1.406   1_565  A
C2681      C2686   1.398       .  A
C2681      H2688   1.083       .  S
C2682      C2683   1.419       .  A
C2684      C3235   1.413       .  A
C2684      C2685   1.411   1_545  A
C2684      H2689   1.084       .  S
C2685      C3238   1.423       .  A
C2686      C2687   1.523       .  S
C2687      F2691   1.384       .  S
C2687      F2692   1.383       .  S
C2687      F2693   1.377       .  S
C2690      C3235   1.517       .  S
C2690      F2694   1.382   1_455  S
C2690      F3247   1.383       .  S
C2690      F2696   1.383       .  S
C2697      C2698   1.410   1_545  A
C2698      C2699   1.420       .  A
C2699      C2706   1.523       .  S
C2699      C2700   1.409       .  A
C2700      H2705   1.084       .  S
C2701      C3252   1.403       .  A
C2701      C2702   1.413       .  A
C2702      C2703   1.515   1_565  S
C2702      C3249   1.416   1_565  A
C2703      F2707   1.384       .  S
C2703      F2708   1.383       .  S
C2703      F2709   1.384       .  S
H2704      C3249   1.083       .  S
C2706      F2710   1.383       .  S
C2706      F2711   1.375       .  S
C2706      F2712   1.381       .  S
C2713      C2714   1.401       .  A
C2713      C2718   1.405       .  A
C2713      H2720   1.083       .  S
C2714      C2715   1.417       .  A
C2715      C2722   1.516       .  S
C2715      C2716   1.415       .  A
C2716      C2717   1.408       .  A
C2716      H2721   1.083       .  S
C2717      C2718   1.425       .  A
C2718      C2719   1.525       .  S
C2719      F2723   1.384       .  S
C2719      F2724   1.381       .  S
C2719      F2725   1.380       .  S
C2722      F2726   1.381       .  S
C2722      F2727   1.384       .  S
C2722      F2728   1.385       .  S
C2729      C2730   1.396       .  A
C2729      C2734   1.397       .  A
C2729      H2736   1.083       .  S
C2730      C2731   1.417       .  A
C2731      C2738   1.518       .  S
C2731      C2732   1.416       .  A
C2732      C2733   1.409       .  A
C2732      H2737   1.083       .  S
C2733      C2734   1.428       .  A
C2734      C2735   1.524       .  S
C2735      F2739   1.384       .  S
C2735      F2740   1.379       .  S
C2735      F2741   1.383       .  S
C2738      F2742   1.381   1_455  S
C2738      F2743   1.384       .  S
C2738      F2744   1.384       .  S
C2745      C2746   1.399       .  A
C2745      C2750   1.406       .  A
C2745      H2752   1.083   1_455  S
C2746      C2747   1.420       .  A
C2747      C2754   1.515       .  S
C2747      C2748   1.406       .  A
C2748      C2749   1.404       .  A
C2748      H2753   1.084       .  S
C2749      C2750   1.430       .  A
C2750      C2751   1.522       .  S
C2751      F2755   1.382       .  S
C2751      F2756   1.383       .  S
C2751      F2757   1.385   1_455  S
O2761     Cu2769   1.987       .  S
O2761      C2771   1.271       .  A
O2762     Cu2769   1.980       .  S
O2762      C2772   1.275       .  A
O2763     Cu2769   2.055       .  S
O2763      C2773   1.284       .  A
O2764     Cu2769   2.064       .  S
O2764      C2774   1.284       .  A
O2765     Cu2770   1.994       .  S
O2765      C2774   1.275       .  A
O2766     Cu2770   1.971       .  S
O2766      C2773   1.269       .  A
O2767     Cu2770   2.044       .  S
O2767      C2772   1.282       .  A
O2768     Cu2770   2.042       .  S
O2768      C2771   1.284       .  A
Cu2769    Cu2770   2.361       .  S
C2771      C3301   1.496       .  S
C2772      C2949   1.507       .  S
C2773      C3285   1.491       .  S
C2774      C2928   1.491       .  S
N2775      C2780   1.352       .  A
N2775      C2779   1.345       .  A
N2775      H2807   1.041       .  S
N2776      C2784   1.355       .  A
N2777      C2782   1.358       .  A
N2777      C2781   1.355   1_545  A
N2777      H2808   1.040       .  S
N2778      C2786   1.346   1_655  A
C2779      C2787   1.385       .  A
C2779      C2795   1.405       .  A
C2780      C2796   1.414   1_655  A
C2780      C2788   1.388       .  A
C2781      C2789   1.389       .  A
C2781      C2798   1.425       .  A
C2782      C2797   1.423   1_655  A
C2782      C2790   1.386   1_545  A
C2783      C2795   1.425       .  A
C2783      C2791   1.387       .  A
C2784      C2798   1.422       .  A
C2784      C2792   1.386       .  A
C2785      C2793   1.384       .  A
C2785      C2796   1.412       .  A
C2786      C2794   1.386       .  A
C2786      C2797   1.406       .  A
C2787      C2788   1.382       .  A
C2787      H2799   1.082       .  S
C2788      H2800   1.082       .  S
C2789      C2790   1.378       .  A
C2789      H2801   1.082       .  S
C2790      H2802   1.080       .  S
C2791      H2803   1.080       .  S
C2792      H2804   1.081       .  S
C2793      H2805   1.081       .  S
C2794      H2806   1.082       .  S
C2795      C3269   1.500       .  S
C2796      C3298   1.495       .  S
C2797      C3234   1.500       .  S
C2798      C3250   1.502       .  S
N2809      C2814   1.355       .  A
N2809      C2813   1.355       .  A
N2809      H2841   1.034       .  S
N2810      C2817   1.352   1_655  A
N2810      C2818   1.352   1_655  A
N2811      C2816   1.356       .  A
N2811      C2815   1.356       .  A
N2811      H2842   1.043       .  S
N2812      C2819   1.353       .  A
N2812      C2820   1.351       .  A
C2813      C2821   1.389       .  A
C2813      C2829   1.416   1_655  A
C2814      C2830   1.410       .  A
C2814      C2822   1.382       .  A
C2815      C2823   1.388       .  A
C2815      C2832   1.424   1_655  A
C2816      C2831   1.420       .  A
C2816      C2824   1.386       .  A
C2817      C2829   1.416       .  A
C2817      C2825   1.386       .  A
C2818      C2832   1.419       .  A
C2818      C2826   1.388       .  A
C2819      C2827   1.382       .  A
C2819      C2830   1.409       .  A
C2820      C2828   1.390       .  A
C2820      C2831   1.419       .  A
C2821      C2822   1.374       .  A
C2821      H2833   1.082       .  S
C2822      H2834   1.080       .  S
C2823      C2824   1.372       .  A
C2825      C2826   1.371       .  A
C2825      H2837   1.083       .  S
C2826      H2838   1.082       .  S
C2827      C2828   1.357       .  A
C2827      H2839   1.082       .  S
C2828      H2840   1.083       .  S
C2829      C3282   1.492       .  S
C2830      C3205   1.493       .  S
C2831      C3221   1.493       .  S
C2832      C3186   1.493       .  S
O2843     Cu2851   1.997       .  S
O2843      C2853   1.276   1_556  A
O2844     Cu2851   2.022       .  S
O2844      C2854   1.281       .  A
O2845     Cu2851   1.996       .  S
O2845      C2855   1.276       .  A
O2846     Cu2851   2.003       .  S
O2846      C2856   1.276       .  A
O2847     Cu2852   2.008       .  S
O2847      C2856   1.277       .  A
O2848     Cu2852   2.020   1_554  S
O2848      C2855   1.279   1_554  A
O2849     Cu2852   2.039       .  S
O2849      C2854   1.279       .  A
Cu2851    Cu2852   2.371       .  S
C2853      C3237   1.489       .  S
C2854      C2951   1.487       .  S
C2855      C3189   1.474   1_556  S
C2856      C2925   1.461       .  S
C2857      C2891   1.518       .  S
C2857      C2858   1.526       .  S
C2857      C2863   1.525       .  S
C2857      C2861   1.542       .  S
C2858      H2865   1.083       .  S
C2858      C2859   1.361       .  D
C2859      C3039   1.477       .  S
C2859      C2860   1.549       .  S
C2860      C2864   1.553       .  S
C2860      C2862   1.542       .  S
C2860      H2866   1.111       .  S
C2861      C2862   1.370       .  D
C2862      C3056   1.480       .  S
C2863      H2868   1.087       .  S
C2863      C2864   1.373       .  D
C2864      C2907   1.483       .  S
C2869      C3041   1.498       .  S
C2869      C2870   1.517       .  S
C2869      C2875   1.521       .  S
C2869      C2873   1.542       .  S
C2871      C3054   1.474       .  S
C2871      C2872   1.560       .  S
C2872      C2874   1.539       .  S
C2872      H2878   1.111       .  S
C2873      H2879   1.086       .  S
C2874      C2905   1.480       .  S
C2875      H2880   1.084       .  S
C2875      C2876   1.357       .  D
C2876      C2893   1.474       .  S
O2881     Cu2889   2.026       .  S
O2881      C2891   1.280       .  A
O2882     Cu2889   2.018   1_554  S
O2882      C2892   1.279       .  A
O2883     Cu2889   2.020       .  S
O2883      C2893   1.277       .  A
O2884     Cu2889   2.009   1_554  S
O2884      C2894   1.278   1_554  A
O2885     Cu2890   2.013       .  S
O2885      C2894   1.277       .  A
O2886     Cu2890   2.019       .  S
O2886      C2893   1.278       .  A
O2887     Cu2890   2.003       .  S
O2887      C2892   1.277   1_556  A
O2888     Cu2890   2.022       .  S
O2888      C2891   1.279       .  A
Cu2889    Cu2890   2.365       .  S
C2892      C3170   1.493       .  S
C2894      C3157   1.495   1_556  S
O2895     Cu2903   2.039       .  S
O2895      C2905   1.281       .  A
O2896     Cu2903   2.033       .  S
O2896      C2906   1.281       .  A
O2897     Cu2903   1.981       .  S
O2897      C2907   1.274       .  A
O2898     Cu2903   1.993       .  S
O2898      C2908   1.273       .  A
O2899     Cu2904   2.040       .  S
O2899      C2908   1.283       .  A
O2900     Cu2904   2.055       .  S
O2900      C2907   1.282       .  A
O2901     Cu2904   1.990       .  S
O2901      C2906   1.273       .  A
O2902     Cu2904   1.995       .  S
O2902      C2905   1.275       .  A
Cu2903    Cu2904   2.367       .  S
C2906      C3138   1.482       .  S
C2908      C3122   1.493       .  S
O2909     Cu2917   2.006       .  S
O2909      C2919   1.276       .  A
O2910     Cu2917   1.997       .  S
O2910      C2920   1.275       .  A
O2911     Cu2917   2.036       .  S
O2911      C2921   1.281       .  A
O2912     Cu2917   2.020       .  S
O2912      C2922   1.280       .  A
O2913     Cu2918   2.012       .  S
O2913      C2922   1.277       .  A
O2914     Cu2918   2.021       .  S
O2914      C2921   1.278       .  A
O2915     Cu2918   2.011       .  S
O2915      C2920   1.279       .  A
O2916     Cu2918   2.003       .  S
O2916      C2919   1.279       .  A
Cu2917    Cu2918   2.369       .  S
C2919      C2923   1.502       .  S
C2920      C3109   1.483       .  S
C2921      C2954   1.487       .  S
C2922      C3090   1.491       .  S
C2923      C2924   1.512       .  S
C2924      H2931   1.090       .  S
C2924      C2925   1.353       .  D
C2926      C2930   1.559       .  S
C2926      C2928   1.550       .  S
C2926      H2932   1.110       .  S
C2927      H2933   1.086       .  S
C2927      C2928   1.376       .  D
C2929      H2934   1.087       .  S
C2929      C2930   1.368       .  D
C2930      C2948   1.482       .  S
O2935     Cu2943   2.023       .  S
O2935      C2945   1.279   1_556  A
O2936     Cu2943   2.004       .  S
O2936      C2946   1.277       .  A
O2937     Cu2943   1.974       .  S
O2937      C2947   1.274   1_556  A
O2938     Cu2943   1.988       .  S
O2938      C2948   1.277       .  A
O2939     Cu2944   2.047       .  S
O2939      C2948   1.280       .  A
O2940     Cu2944   2.031   1_554  S
O2940      C2947   1.280       .  A
O2941     Cu2944   2.016       .  S
O2941      C2946   1.277       .  A
O2942     Cu2944   2.012   1_554  S
O2942      C2945   1.277       .  A
Cu2943    Cu2944   2.365       .  S
C2945      C3077   1.492       .  S
C2946      C2956   1.466       .  S
C2947      C3058   1.481       .  S
C2949      C2950   1.534       .  S
C2949      C2955   1.519       .  S
C2949      C2953   1.542       .  S
C2950      H2957   1.087       .  S
C2950      C2951   1.366       .  D
C2951      C2952   1.553       .  S
C2952      C2956   1.544       .  S
C2952      C2954   1.553       .  S
C2952      H2958   1.111       .  S
C2953      H2959   1.086       .  S
C2953      C2954   1.378       .  D
C2955      H2960   1.089       .  S
C2955      C2956   1.352       .  D
N2961      C2966   1.355       .  A
N2961      C2965   1.354       .  A
N2961      H2993   1.043       .  S
N2962      C2970   1.349   1_545  A
N2963      C2968   1.349       .  A
N2963      C2967   1.353       .  A
N2963      H2994   1.042   1_545  S
N2964      C2972   1.353   1_545  A
C2965      C2973   1.386       .  A
C2965      C2981   1.421       .  A
C2966      C2982   1.424       .  A
C2966      C2974   1.387       .  A
C2967      C2975   1.388       .  A
C2967      C2984   1.419       .  A
C2968      C2983   1.414       .  A
C2968      C2976   1.386       .  A
C2969      C2981   1.407       .  A
C2969      C2977   1.386       .  A
C2970      C2984   1.412   1_565  A
C2970      C2978   1.386       .  A
C2971      C2979   1.385       .  A
C2971      C2982   1.414       .  A
C2972      C2980   1.387       .  A
C2972      C2983   1.418   1_565  A
C2973      C2974   1.386       .  A
C2975      C2976   1.384       .  A
C2975      H2987   1.082       .  S
C2976      H2988   1.082       .  S
C2977      H2989   1.083       .  S
C2978      H2990   1.082       .  S
C2979      H2991   1.082       .  S
C2980      H2992   1.082       .  S
C2981      C3173   1.496       .  S
C2982      C3074   1.509       .  S
C2983      C3093   1.499       .  S
C2984      C3125   1.500       .  S
N2995      C3000   1.348       .  A
N2995      C2999   1.348       .  A
N2995      H3027   1.043       .  S
N2996      C3003   1.350       .  A
N2996      C3004   1.347       .  A
N2997      C3002   1.353       .  A
N2997      C3001   1.353       .  A
N2997      H3028   1.044       .  S
N2998      C3005   1.348       .  A
N2998      C3006   1.347       .  A
C2999      C3007   1.387       .  A
C2999      C3015   1.410       .  A
C3000      C3016   1.409       .  A
C3000      C3008   1.386       .  A
C3001      C3009   1.387       .  A
C3001      C3018   1.413       .  A
C3002      C3017   1.414       .  A
C3002      C3010   1.387       .  A
C3003      C3015   1.415       .  A
C3003      C3011   1.385       .  A
C3004      C3018   1.410       .  A
C3004      C3012   1.387       .  A
C3005      C3013   1.385       .  A
C3005      C3016   1.411       .  A
C3006      C3014   1.387       .  A
C3006      C3017   1.407       .  A
C3007      C3008   1.380       .  A
C3007      H3019   1.082       .  S
C3008      H3020   1.082       .  S
C3009      C3010   1.378       .  A
C3009      H3021   1.082       .  S
C3010      H3022   1.082       .  S
C3011      C3012   1.380       .  A
C3011      H3023   1.081       .  S
C3012      H3024   1.082       .  S
C3013      C3014   1.375       .  A
C3013      H3025   1.080       .  S
C3014      H3026   1.083       .  S
C3015      C3154   1.494       .  S
C3016      C3061   1.488       .  S
C3017      C3106   1.489       .  S
C3018      C3141   1.490       .  S
O3029     Cu3037   2.032       .  S
O3029      C3039   1.280       .  A
O3030     Cu3037   2.019       .  S
O3030      C3040   1.278       .  A
O3031     Cu3037   2.001       .  S
O3031      C3041   1.276       .  A
O3032     Cu3037   2.006       .  S
O3032      C3042   1.279       .  A
O3033     Cu3038   1.998       .  S
O3033      C3042   1.275       .  A
O3034     Cu3038   1.998       .  S
O3034      C3041   1.278       .  A
O3035     Cu3038   2.005       .  S
O3035      C3040   1.278       .  A
O3036     Cu3038   2.014       .  S
O3036      C3039   1.277       .  A
Cu3037    Cu3038   2.372       .  S
C3040      C3266   1.482       .  S
C3042      C3202   1.476       .  S
O3043     Cu3051   2.010       .  S
O3043      C3053   1.278       .  A
O3044     Cu3051   2.008       .  S
O3044      C3054   1.281       .  A
O3045     Cu3051   2.022       .  S
O3045      C3055   1.278       .  A
O3046     Cu3051   2.028       .  S
O3046      C3056   1.279       .  A
O3047     Cu3052   2.010       .  S
O3047      C3056   1.278       .  A
O3048     Cu3052   2.030   1_554  S
O3048      C3055   1.280   1_554  A
O3049     Cu3052   2.012       .  S
O3049      C3054   1.274       .  A
O3050     Cu3052   1.990   1_554  S
O3050      C3053   1.274   1_554  A
Cu3051    Cu3052   2.369       .  S
C3053      C3218   1.483   1_556  S
C3055      C3253   1.485   1_556  S
C3057      C3062   1.397       .  A
C3057      H3064   1.082       .  S
C3059      C3060   1.411       .  A
C3060      C3061   1.408       .  A
C3060      H3065   1.083       .  S
C3061      C3062   1.413       .  A
C3062      C3063   1.522       .  S
C3063      F3067   1.386       .  S
C3063      F3068   1.381       .  S
C3063      F3069   1.380       .  S
C3066      F3071   1.383       .  S
C3066      F3072   1.385       .  S
C3073      C3074   1.407       .  A
C3073      C3078   1.404       .  A
C3073      H3080   1.083       .  S
C3074      C3075   1.423       .  A
C3076      C3077   1.407       .  A
C3076      H3081   1.084   1_554  S
C3078      C3079   1.521       .  S
C3079      F3083   1.385       .  S
C3079      F3084   1.383       .  S
C3082      F3086   1.382       .  S
C3082      F3087   1.382       .  S
C3089      C3090   1.406       .  A
C3089      C3094   1.408   1_565  A
C3089      H3096   1.084   1_565  S
C3090      C3091   1.424       .  A
C3091      C3098   1.521       .  S
C3091      C3092   1.406       .  A
C3092      C3093   1.403   1_565  A
C3092      H3097   1.083       .  S
C3093      C3094   1.420       .  A
C3094      C3095   1.517       .  S
C3095      F3099   1.384       .  S
C3095      F3100   1.383       .  S
C3098      F3102   1.381       .  S
C3098      F3103   1.383       .  S
C3098      F3104   1.385       .  S
C3105      C3106   1.401       .  A
C3105      C3110   1.399       .  A
C3105      H3112   1.083       .  S
C3106      C3107   1.413       .  A
C3107      C3114   1.518       .  S
C3107      C3108   1.410       .  A
C3108      C3109   1.408       .  A
C3108      H3113   1.083       .  S
C3109      C3110   1.424       .  A
C3110      C3111   1.523       .  S
C3111      F3115   1.385       .  S
C3111      F3116   1.380       .  S
C3111      F3117   1.383       .  S
C3114      F3118   1.380       .  S
C3114      F3119   1.382       .  S
C3114      F3120   1.384       .  S
C3121      C3122   1.405   1_545  A
C3121      C3126   1.410       .  A
C3121      H3128   1.084       .  S
C3122      C3123   1.427       .  A
C3123      C3130   1.521       .  S
C3123      C3124   1.403       .  A
C3124      C3125   1.400   1_565  A
C3124      H3129   1.082       .  S
C3125      C3126   1.423       .  A
C3126      C3127   1.518       .  S
C3127      F3131   1.384       .  S
C3127      F3133   1.383       .  S
C3130      F3134   1.383       .  S
C3130      F3135   1.380       .  S
C3130      F3136   1.385       .  S
C3137      C3138   1.407       .  A
C3137      C3142   1.413       .  A
C3137      H3144   1.083       .  S
C3138      C3139   1.423       .  A
C3139      C3146   1.521       .  S
C3139      C3140   1.398       .  A
C3140      C3141   1.399       .  A
C3140      H3145   1.083       .  S
C3141      C3142   1.416       .  A
C3142      C3143   1.517       .  S
C3143      F3147   1.385       .  S
C3143      F3148   1.383       .  S
C3143      F3149   1.381       .  S
C3146      F3150   1.382       .  S
C3146      F3151   1.377       .  S
C3146      F3152   1.385       .  S
C3153      C3154   1.402       .  A
C3153      H3160   1.083       .  S
C3154      C3155   1.419       .  A
C3155      C3162   1.519       .  S
C3155      C3156   1.408       .  A
C3156      H3161   1.084       .  S
C3157      C3158   1.425       .  A
C3158      C3159   1.520   1_554  S
C3159      F3163   1.385       .  S
C3159      F3164   1.381       .  S
C3159      F3165   1.383       .  S
C3162      F3166   1.383       .  S
C3162      F3167   1.382       .  S
C3162      F3168   1.384       .  S
C3169      C3170   1.411       .  A
C3169      C3174   1.411       .  A
C3169      H3176   1.084   1_554  S
C3171      C3178   1.523       .  S
C3171      C3172   1.403       .  A
C3172      C3173   1.406       .  A
C3172      H3177   1.083       .  S
C3174      C3175   1.518       .  S
C3175      F3179   1.384       .  S
C3175      F3181   1.382       .  S
C3178      F3182   1.381       .  S
C3178      F3184   1.385       .  S
C3185      C3190   1.411       .  A
C3185      H3192   1.083       .  S
C3186      C3187   1.419       .  A
C3187      C3194   1.520       .  S
C3187      C3188   1.399       .  A
C3188      H3193   1.086       .  S
C3189      C3190   1.412       .  A
C3190      C3191   1.516       .  S
C3191      F3195   1.385       .  S
C3191      F3196   1.383       .  S
C3191      F3197   1.383   1_554  S
C3194      F3198   1.380   1_455  S
C3194      F3199   1.384   1_455  S
C3194      F3200   1.380       .  S
C3201      C3202   1.401       .  A
C3201      C3206   1.398       .  A
C3201      H3208   1.085       .  S
C3202      C3203   1.415       .  A
C3203      C3210   1.516       .  S
C3203      C3204   1.412       .  A
C3204      C3205   1.407       .  A
C3204      H3209   1.083       .  S
C3205      C3206   1.420       .  A
C3206      C3207   1.521       .  S
C3207      F3211   1.373       .  S
C3207      F3212   1.382       .  S
C3207      F3213   1.382       .  S
C3210      F3214   1.382       .  S
C3210      F3215   1.383       .  S
C3210      F3216   1.385       .  S
C3217      C3218   1.410   1_556  A
C3217      C3222   1.415   1_556  A
C3217      H3224   1.083       .  S
C3219      C3226   1.525       .  S
C3219      C3220   1.392       .  A
C3220      C3221   1.400       .  A
C3220      H3225   1.083       .  S
C3222      C3223   1.517   1_554  S
C3223      F3227   1.385       .  S
C3223      F3228   1.383   1_556  S
C3223      F3229   1.380       .  S
C3226      F3230   1.383       .  S
C3226      F3231   1.373       .  S
C3226      F3232   1.385       .  S
C3233      C3234   1.405   1_565  A
C3233      C3238   1.400       .  A
C3233      H3240   1.083       .  S
C3234      C3235   1.417       .  A
C3236      C3237   1.410   1_545  A
C3236      H3241   1.084   1_554  S
C3238      C3239   1.523       .  S
C3239      F3243   1.384       .  S
C3239      F3244   1.383       .  S
C3239      F3245   1.379       .  S
C3242      F3246   1.381   1_455  S
C3242      F3248   1.384       .  S
C3249      C3250   1.411   1_545  A
C3250      C3251   1.420       .  A
C3251      C3258   1.524       .  S
C3251      C3252   1.407       .  A
C3252      H3257   1.084       .  S
C3253      C3254   1.412       .  A
C3254      C3255   1.514   1_564  S
C3255      F3259   1.384   1_556  S
C3255      F3260   1.383   1_556  S
C3255      F3261   1.384       .  S
C3258      F3262   1.383       .  S
C3258      F3263   1.374       .  S
C3258      F3264   1.380       .  S
C3265      C3266   1.399       .  A
C3265      C3270   1.402       .  A
C3265      H3272   1.083       .  S
C3266      C3267   1.416       .  A
C3267      C3274   1.516       .  S
C3267      C3268   1.413       .  A
C3268      C3269   1.408       .  A
C3268      H3273   1.083       .  S
C3269      C3270   1.427       .  A
C3270      C3271   1.526       .  S
C3271      F3275   1.385       .  S
C3271      F3276   1.381       .  S
C3271      F3277   1.379       .  S
C3274      F3278   1.381       .  S
C3274      F3279   1.384       .  S
C3274      F3280   1.385       .  S
C3281      C3282   1.394       .  A
C3281      C3286   1.397       .  A
C3281      H3288   1.083       .  S
C3282      C3283   1.416       .  A
C3283      C3290   1.517       .  S
C3283      C3284   1.416       .  A
C3284      C3285   1.410       .  A
C3284      H3289   1.083       .  S
C3285      C3286   1.429       .  A
C3286      C3287   1.524       .  S
C3287      F3291   1.385       .  S
C3287      F3292   1.379       .  S
C3287      F3293   1.383       .  S
C3290      F3294   1.381   1_455  S
C3290      F3295   1.384       .  S
C3290      F3296   1.384       .  S
C3297      C3298   1.398       .  A
C3297      C3302   1.406       .  A
C3297      H3304   1.083   1_455  S
C3298      C3299   1.417       .  A
C3299      C3306   1.515       .  S
C3299      C3300   1.408       .  A
C3300      C3301   1.405       .  A
C3300      H3305   1.084       .  S
C3301      C3302   1.430       .  A
C3302      C3303   1.521       .  S
C3303      F3307   1.381       .  S
C3303      F3308   1.383       .  S
C3303      F3309   1.385   1_455  S
