geometry optimzed in LAMMPS
_audit_creation_date              2020-11-30 
_audit_creation_method            'lammps2cif' 
_symmetry_space_group_name_H-M    'P1' 
_symmetry_Int_Tables_number       1 
_symmetry_cell_setting            triclinic 
loop_ 
_symmetry_equiv_pos_as_xyz 
  x,y,z 
_cell_length_a                    36.83141299 
_cell_length_b                    36.88255083037254 
_cell_length_c                    43.93199777386337 
_cell_angle_alpha                 90.21741166645764 
_cell_angle_beta                  89.82017502927425 
_cell_angle_gamma                 120.03400964995275 
loop_ 
_atom_site_label 
_atom_site_type_symbol 
_atom_site_fract_x 
_atom_site_fract_y 
_atom_site_fract_z 
_atom_site_charge 
O1          O  0.61882081  0.85300194  0.07691886    -0.81300
C2          C  0.65652274  0.77667933  0.17422892     0.98100
O3          O  0.68221226  0.80792567  0.15869112    -0.70400
O4          O  0.67655198  0.79263853  0.09984182    -0.74000
Al5        Al  0.67639982  0.83563484  0.12375897     1.49000
C6          C  0.65792943  0.77889019  0.07477244     0.93300
O7          O  0.55966726  0.73864172  0.10013465    -0.80200
O8          O  0.56694113  0.82806185  0.15261769    -0.73800
Al9        Al  0.59126988  0.79674264  0.09044261     1.90100
O10         O  0.54632404  0.74621988  0.14756162    -0.72800
O11         O  0.63558618  0.84461845  0.18207726    -0.72700
O12         O  0.61777627  0.76394469  0.17284863    -0.78400
O13         O  0.68279285  0.88196635  0.14773984    -0.76600
O14         O  0.62055272  0.80975536  0.12493159    -1.12700
O15         O  0.68300606  0.86882386  0.08842001    -0.71900
C16         C  0.65783464  0.87639511  0.07417703     0.98800
C17         C  0.53828808  0.72377721  0.12407114     0.95200
Al18       Al  0.59398726  0.79685581  0.16068139     1.55600
O19         O  0.62764581  0.78400819  0.06759381    -0.76500
C20         C  0.66686924  0.87870967  0.17380689     0.99400
C21         C  0.54516274  0.82373627  0.12934718     0.94300
O22         O  0.54882742  0.80692050  0.10541758    -0.81800
O23         O  0.14406515  0.76668354  0.07601237    -0.81300
C24         C  0.22042169  0.87853658  0.17501757     0.98100
O25         O  0.18907283  0.87320154  0.15974350    -0.70400
O26         O  0.20107774  0.88402186  0.10098758    -0.74000
Al27       Al  0.16016287  0.83966020  0.12498029     1.49000
C28         C  0.21416751  0.88039723  0.07528057     0.93300
O29         O  0.25876403  0.82592245  0.09735289    -0.80200
O30         O  0.17184050  0.73830136  0.14884857    -0.73800
Al31       Al  0.20062739  0.79712686  0.08866959     1.90100
O32         O  0.25365183  0.80349621  0.14423515    -0.72800
O33         O  0.15326526  0.78710892  0.18163889    -0.72700
O34         O  0.23301483  0.85249508  0.17315322    -0.78400
O35         O  0.11573092  0.79919075  0.14911142    -0.76600
O36         O  0.18748504  0.81118003  0.12425417    -1.12700
O37         O  0.12533743  0.81194549  0.09031933    -0.71900
C38         C  0.11862460  0.78007760  0.07496105     0.98800
C39         C  0.27526983  0.82050487  0.12069101     0.95200
Al40       Al  0.20166412  0.79649501  0.15896362     1.55600
O41         O  0.21010651  0.84578917  0.06708196    -0.76500
C42         C  0.11929653  0.78538524  0.17442192     0.99400
C43         C  0.17737206  0.72257543  0.12493450     0.94300
O44         O  0.19416500  0.74516271  0.10186995    -0.81800
O45         O  0.13982906  0.37432606  0.17477638    -0.81300
C46         C  0.21090639  0.33293036  0.07515529     0.98100
O47         O  0.17895478  0.30787039  0.09036580    -0.70400
O48         O  0.19507720  0.31237003  0.14914496    -0.74000
Al49       Al  0.15296268  0.31506736  0.12602458     1.49000
C50         C  0.21041558  0.33108854  0.17396743     0.93300
O51         O  0.25415548  0.42972370  0.14944391    -0.80200
O52         O  0.16530160  0.42727260  0.09893994    -0.73800
Al53       Al  0.19601999  0.40015385  0.15994568     1.90100
O54         O  0.24646769  0.44394996  0.10251034    -0.72800
O55         O  0.14592262  0.35816090  0.06884074    -0.72700
O56         O  0.22543761  0.37193576  0.07697308    -0.78400
O57         O  0.10738678  0.31107087  0.10274183    -0.76600
O58         O  0.18108390  0.37101839  0.12533321    -1.12700
O59         O  0.12093201  0.30976818  0.16193518    -0.71900
C60         C  0.11536837  0.33543572  0.17751108     0.98800
C61         C  0.26939736  0.45070793  0.12544666     0.95200
Al62       Al  0.19456102  0.39792866  0.08985658     1.55600
O63         O  0.20734974  0.36243261  0.18164923    -0.76500
C64         C  0.11122368  0.32771782  0.07696143     0.99400
C65         C  0.17134932  0.44951709  0.12239533     0.94300
O66         O  0.18802973  0.44423916  0.14574436    -0.81800
O67         O  0.85159512  0.62153478  0.42362468    -0.81300
C68         C  0.77811972  0.65981995  0.32470121     0.98100
O69         O  0.80871959  0.68570194  0.34074169    -0.70400
O70         O  0.79436559  0.68080806  0.39947741    -0.74000
Al71       Al  0.83696730  0.67998518  0.37542321     1.49000
C72         C  0.77853763  0.66122565  0.42385384     0.93300
O73         O  0.73846125  0.56334128  0.39761487    -0.80200
O74         O  0.82994615  0.57012546  0.34720561    -0.73800
Al75       Al  0.79615938  0.59440448  0.40851019     1.90100
O76         O  0.74777942  0.54958850  0.35071270    -0.72800
O77         O  0.84705979  0.63865947  0.31743352    -0.72700
O78         O  0.76645954  0.62131732  0.32545761    -0.78400
O79         O  0.88320523  0.68698322  0.35124579    -0.76600
O80         O  0.81084502  0.62404942  0.37413367    -1.12700
O81         O  0.87055787  0.68582686  0.41045922    -0.71900
C82         C  0.87647517  0.66035665  0.42589359     0.98800
C83         C  0.72455972  0.54168984  0.37373611     0.95200
Al84       Al  0.79891278  0.59740674  0.33833955     1.55600
O85         O  0.78250622  0.63031787  0.43093206    -0.76500
C86         C  0.88070774  0.67049697  0.32555179     0.99400
C87         C  0.82410785  0.54761456  0.37033325     0.94300
O88         O  0.80671222  0.55181486  0.39384414    -0.81800
O89         O  0.84666769  0.22756353  0.32746643    -0.81300
C90         C  0.77620816  0.11866183  0.42866378     0.98100
O91         O  0.80746041  0.12439377  0.41294272    -0.70400
O92         O  0.79153087  0.11002910  0.35387599    -0.74000
Al93       Al  0.83327450  0.15612516  0.37667168     1.49000
C94         C  0.77766135  0.11291704  0.32827800     0.93300
O95         O  0.73178976  0.16621021  0.35116252    -0.80200
O96         O  0.81959553  0.25672772  0.40062273    -0.73800
Al97       Al  0.78995596  0.19608648  0.34117732     1.90100
O98         O  0.73866360  0.19048410  0.39766058    -0.72800
O99         O  0.84095111  0.21012957  0.43261131    -0.72700
O100        O  0.76148012  0.14285683  0.42606576    -0.78400
O101        O  0.87851959  0.19888897  0.39925382    -0.76600
O102        O  0.80481645  0.18355230  0.37640557    -1.12700
O103        O  0.86545299  0.18193229  0.34060528    -0.71900
C104        C  0.87159772  0.21352699  0.32536383     0.98800
C105        C  0.71611825  0.17295443  0.37461665     0.95200
Al106      Al  0.79134818  0.19873643  0.41127327     1.55600
O107        O  0.78091313  0.14709987  0.31993664    -0.76500
C108        C  0.87542750  0.21356233  0.42449280     0.99400
C109        C  0.81159984  0.27096669  0.37708678     0.94300
O110        O  0.79506044  0.24779478  0.35419475    -0.81800
O111        O  0.37265437  0.14606625  0.32425224    -0.81300
C112        C  0.33318494  0.21639208  0.42488964     0.98100
O113        O  0.30772842  0.18436816  0.40982260    -0.70400
O114        O  0.30810413  0.19712949  0.35074304    -0.74000
Al115      Al  0.31384079  0.15725601  0.37428528     1.49000
C116        C  0.32669241  0.21379360  0.32619885     0.93300
O117        O  0.42675208  0.25983913  0.34846406    -0.80200
O118        O  0.42706115  0.17205018  0.39866073    -0.73800
Al119      Al  0.39773159  0.20185239  0.33855332     1.90100
O120        O  0.44367511  0.25323138  0.39486518    -0.72800
O121        O  0.35959395  0.15310108  0.43110836    -0.72700
O122        O  0.37227393  0.23186516  0.42203331    -0.78400
O123        O  0.31218314  0.11343548  0.39783325    -0.76600
O124        O  0.36982947  0.18684811  0.37374347    -1.12700
O125        O  0.30820834  0.12365566  0.33928891    -0.71900
C126        C  0.33431305  0.11878548  0.32366372     0.98800
C127        C  0.44901452  0.27560769  0.37181992     0.95200
Al128      Al  0.39823620  0.20131552  0.40863827     1.55600
O129        O  0.35863891  0.21220689  0.31787590    -0.76500
C130        C  0.32892676  0.11815726  0.42358268     0.99400
C131        C  0.44831717  0.17745275  0.37475242     0.94300
O132        O  0.44300346  0.19470124  0.35174218    -0.81800
C133        C  0.52234779  0.13854039  0.39748743    -0.27700
C134        C  0.55041362  0.15246478  0.37281078     0.05900
C135        C  0.54227167  0.17071162  0.34770771     0.25500
C136        C  0.50800273  0.17707987  0.34811433    -0.12200
C137        C  0.48117670  0.16548799  0.37355595    -0.26100
C138        C  0.48785516  0.14475910  0.39788483     0.36300
C139        C  0.59056027  0.15260694  0.37476228     0.05900
F140        F  0.56905861  0.18504125  0.32367017    -0.19900
H141        H  0.50355972  0.19273759  0.32889145     0.15800
F142        F  0.46189110  0.13150425  0.42239178    -0.23600
H143        H  0.52794658  0.12398132  0.41689324     0.17500
C144        C  0.61806303  0.17352973  0.39895100     0.25500
C145        C  0.65806733  0.17838202  0.39914348    -0.12100
C146        C  0.67178889  0.16281566  0.37514502    -0.26200
C147        C  0.64362829  0.14037227  0.35144919     0.36500
C148        C  0.60336321  0.13546520  0.35130752    -0.27800
F149        F  0.60722918  0.19162813  0.42148392    -0.19900
H150        H  0.67892509  0.19592528  0.41766952     0.15800
F151        F  0.65512066  0.12391826  0.32818053    -0.23600
H152        H  0.58242384  0.11905715  0.33254116     0.17600
C153        C  0.63082243  0.43705629  0.35307583    -0.27700
C154        C  0.59896562  0.43698521  0.37068950     0.05900
C155        C  0.60854166  0.47174225  0.38931550     0.25500
C156        C  0.64948292  0.50588125  0.39031085    -0.12200
C157        C  0.68130836  0.50591225  0.37261737    -0.26100
C158        C  0.67159863  0.47108480  0.35396743     0.36300
C159        C  0.55689950  0.39903620  0.37112526     0.05900
F160        F  0.57824335  0.47276056  0.40632555    -0.19900
H161        H  0.65627197  0.53241377  0.40473728     0.15800
F162        F  0.70184685  0.46910074  0.33751908    -0.23600
H163        H  0.62432830  0.41011087  0.33922062     0.17500
C164        C  0.53543177  0.38063705  0.34390991     0.25500
C165        C  0.49884257  0.34141446  0.34436681    -0.12100
C166        C  0.48334429  0.31979454  0.37193219    -0.26200
C167        C  0.50351327  0.33956275  0.39932602     0.36500
C168        C  0.53993470  0.37875135  0.39881428    -0.27800
F169        F  0.55049788  0.40013651  0.31683495    -0.19900
H170        H  0.48376977  0.32716480  0.32300238     0.15800
F171        F  0.48891469  0.32054735  0.42661743    -0.23600
H172        H  0.55603331  0.39238371  0.42001311     0.17600
C173        C  0.83691702  0.45696146  0.34353198    -0.27700
C174        C  0.83803922  0.43909258  0.37149135     0.05900
C175        C  0.84059425  0.46057007  0.39858441     0.25500
C176        C  0.83890662  0.49753200  0.39775631    -0.12200
C177        C  0.83484381  0.51395112  0.36996430    -0.26100
C178        C  0.83554569  0.49421034  0.34266750     0.36300
C179        C  0.83250657  0.39641556  0.37247411     0.05900
F180        F  0.84154869  0.44424771  0.42600862    -0.19900
H181        H  0.83881765  0.51232814  0.41908925     0.15800
F182        F  0.83190376  0.50909137  0.31531446    -0.23600
H183        H  0.83550306  0.44114532  0.32236304     0.17500
C184        C  0.79808851  0.36303814  0.35778794     0.25500
C185        C  0.79190856  0.32257519  0.35943655    -0.12100
C186        C  0.81942047  0.31430853  0.37612559    -0.26200
C187        C  0.85357142  0.34745807  0.39119518     0.36500
C188        C  0.86012345  0.38825244  0.38922100    -0.27800
F189        F  0.76954569  0.36926752  0.34270679    -0.19900
H190        H  0.76496737  0.29738689  0.34806647     0.15800
F191        F  0.88110781  0.34064102  0.40710869    -0.23600
H192        H  0.88683684  0.41353929  0.40068542     0.17600
C193        C  0.04656308  0.31734244  0.00712230    -0.27700
C194        C  0.00981702  0.27934940  0.01258955     0.05900
C195        C  0.00615302  0.25715457  0.03947417     0.25500
C196        C  0.03886529  0.27321062  0.06068720    -0.12200
C197        C  0.07576522  0.31144784  0.05527786    -0.26100
C198        C  0.07922407  0.33337753  0.02812523     0.36300
C199        C  0.97733198  0.26471783  0.48856802     0.05900
F200        F  0.97145122  0.21945779  0.04477942    -0.19900
H201        H  0.03558295  0.25540230  0.08107950     0.15800
F202        F  0.11409563  0.37047716  0.02167884    -0.23600
H203        H  0.05461780  0.33234774  0.48327683     0.17500
C204        C  0.93770265  0.25823335  0.49685408     0.25500
C205        C  0.90519702  0.24263641  0.47564036    -0.12100
C206        C  0.91153111  0.23335633  0.44565557    -0.26200
C207        C  0.95182904  0.24164233  0.43699921     0.36500
C208        C  0.98436907  0.25719933  0.45834219    -0.27800
F209        F  0.93057736  0.26754615  0.52538772    -0.19900
H210        H  0.87477390  0.23723386  0.48293302     0.15800
F211        F  0.95985692  0.23460755  0.40806298    -0.23600
H212        H  0.01487593  0.26607815  0.95238859     0.17600
C213        C  0.03841346  0.26865553  0.23863920    -0.27700
C214        C  0.01260407  0.28656117  0.24146563     0.05900
C215        C  0.02199209  0.32187914  0.22347859     0.25500
C216        C  0.05605549  0.33836443  0.20322082    -0.12200
C217        C  0.08056686  0.31928530  0.19976751    -0.26100
C218        C  0.07149040  0.28428795  0.21772067     0.36300
C219        C  0.97606998  0.26795391  0.26292166     0.05900
F220        F  0.99744143  0.33963575  0.22455878    -0.19900
H221        H  0.06249277  0.36528321  0.18949931     0.15800
F222        F  0.09531986  0.26577428  0.21558427    -0.23600
H223        H  0.03317112  0.24249749  0.25278288     0.17500
C224        C  0.95043654  0.22411426  0.26571542     0.25500
C225        C  0.91711195  0.20695241  0.28643346    -0.12100
C226        C  0.90748475  0.23280016  0.30407253    -0.26200
C227        C  0.93228029  0.27644775  0.30105394     0.36500
C228        C  0.96662498  0.29378000  0.28106253    -0.27800
F229        F  0.95665349  0.19762760  0.24781013    -0.19900
H230        H  0.89800749  0.17319134  0.28814821     0.15800
F231        F  0.92412835  0.30231200  0.31812405    -0.23600
H232        H  0.98616290  0.32751223  0.28011660     0.17600
C233        C  0.24101405  0.26025127  0.21520231    -0.27700
C234        C  0.26493730  0.28615406  0.23934277     0.05900
C235        C  0.27311761  0.32759350  0.24071838     0.25500
C236        C  0.25616056  0.34224051  0.21886222    -0.12200
C237        C  0.23114203  0.31600721  0.19508891    -0.26100
C238        C  0.22436393  0.27497899  0.19312896     0.36300
C239        C  0.28052152  0.26937449  0.26324618     0.05900
F240        F  0.29609422  0.35333930  0.26384113    -0.19900
H241        H  0.26210958  0.37405238  0.22084504     0.15800
F242        F  0.20039792  0.24854670  0.17064823    -0.23600
H243        H  0.23488575  0.22834296  0.21365641     0.17500
C244        C  0.25244847  0.23362565  0.27984093     0.25500
C245        C  0.26750824  0.21665055  0.30141685    -0.12100
C246        C  0.31075312  0.23463355  0.30625611    -0.26200
C247        C  0.33876917  0.27108369  0.29026764     0.36500
C248        C  0.32365213  0.28844848  0.26907786    -0.27800
F249        F  0.21050025  0.21507752  0.27503070    -0.19900
H250        H  0.24551776  0.18856324  0.31351625     0.15800
F251        F  0.38073761  0.28983560  0.29513274    -0.23600
H252        H  0.34566786  0.31613783  0.25660216     0.17600
C253        C  0.27063380  0.22492446  0.48975304    -0.27700
C254        C  0.28464463  0.26807205  0.49021525     0.05900
C255        C  0.31571976  0.29435593  0.46923870     0.25500
C256        C  0.33197371  0.27755515  0.44819132    -0.12200
C257        C  0.31677870  0.23432304  0.44725049    -0.26100
C258        C  0.28615025  0.20809793  0.46828056     0.36300
C259        C  0.26500476  0.28339484  0.01234330     0.05900
F260        F  0.32937952  0.33601499  0.46837302    -0.19900
H261        H  0.35566456  0.29812592  0.43211610     0.15800
F262        F  0.27212299  0.16632000  0.46860324    -0.23600
H263        H  0.24486865  0.20205122  0.00499693     0.17500
C264        C  0.22124539  0.26342799  0.01667604     0.25500
C265        C  0.20414469  0.27934783  0.03762919    -0.12100
C266        C  0.23004693  0.31597773  0.05412586    -0.26200
C267        C  0.27366308  0.33614116  0.04984847     0.36500
C268        C  0.29094439  0.31966695  0.02940154    -0.27800
F269        F  0.19479478  0.22925885  0.99998999    -0.19900
H270        H  0.17039120  0.26362750  0.04036520     0.15800
F271        F  0.29959494  0.37109075  0.06600555    -0.23600
H272        H  0.32471569  0.33511733  0.02711854     0.17600
C273        C  0.26592033  0.94681439  0.00547322    -0.27700
C274        C  0.26511539  0.98352314  0.01243662     0.05900
C275        C  0.24847568  0.98664907  0.04054610     0.25500
C276        C  0.23286073  0.95341284  0.06118886    -0.12200
C277        C  0.23316365  0.91635924  0.05407076    -0.26100
C278        C  0.25018688  0.91354293  0.02595479     0.36300
C279        C  0.27993865  0.01892774  0.48962213     0.05900
F280        F  0.24588939  0.02115001  0.04761418    -0.19900
H281        H  0.21968591  0.95638267  0.08248670     0.15800
F282        F  0.25153731  0.87863846  0.01798651    -0.23600
H283        H  0.27870908  0.94547585  0.48362584     0.17500
C284        C  0.30938596  0.06014607  0.49805411     0.25500
C285        C  0.32517857  0.09198214  0.47636301    -0.12100
C286        C  0.31205109  0.08346837  0.44583445    -0.26200
C287        C  0.28244371  0.04217854  0.43741919     0.36500
C288        C  0.26670884  0.01029741  0.45916472    -0.27800
F289        F  0.32391169  0.06947675  0.52703866    -0.19900
H290        H  0.34780539  0.12346766  0.48357468     0.15800
F291        F  0.26902450  0.03239560  0.40821408    -0.23600
H292        H  0.24401952  0.97869499  0.45222029     0.17600
C293        C  0.26398603  0.01560809  0.28330453    -0.27700
C294        C  0.29235120  0.01298075  0.26331904     0.05900
C295        C  0.33491260  0.04381016  0.26449984     0.25500
C296        C  0.34846533  0.07764703  0.28461439    -0.12200
C297        C  0.31984735  0.08123707  0.30397428    -0.26100
C298        C  0.27747406  0.04913346  0.30362476     0.36300
C299        C  0.27641172  0.97981988  0.23979131     0.05900
F300        F  0.36297325  0.04226413  0.24521331    -0.19900
H301        H  0.38129227  0.10158860  0.28447852     0.15800
F302        F  0.24880188  0.05025961  0.32249803    -0.23600
H303        H  0.23108448  0.99185078  0.28279554     0.17500
C304        C  0.28924461  0.94983020  0.23853589     0.25500
C305        C  0.27178679  0.91753997  0.21689625    -0.12100
C306        C  0.24139945  0.91477052  0.19613807    -0.26200
C307        C  0.22985901  0.94589674  0.19691425     0.36500
C308        C  0.24704335  0.97778724  0.21865756    -0.27800
F309        F  0.31738049  0.95086598  0.25891558    -0.19900
H310        H  0.28134434  0.89413557  0.21688610     0.15800
F311        F  0.20167100  0.94551026  0.17689912    -0.23600
H312        H  0.23725098  0.00102476  0.21911396     0.17600
C313        C  0.94992931  0.68247558  0.25779194    -0.27700
C314        C  0.98366617  0.72316173  0.26187283     0.05900
C315        C  0.98370814  0.74668843  0.28718498     0.25500
C316        C  0.95054170  0.72935375  0.30817408    -0.12200
C317        C  0.91671923  0.68844177  0.30411750    -0.26100
C318        C  0.91685576  0.66517139  0.27858449     0.36300
C319        C  0.01860965  0.74019321  0.23961514     0.05900
F320        F  0.01522911  0.78673540  0.29115943    -0.19900
H321        H  0.95098979  0.74817269  0.32730386     0.15800
F322        F  0.88527727  0.62537188  0.27372581    -0.23600
H323        H  0.94945871  0.66378758  0.23855202     0.17500
C324        C  0.06004416  0.75477542  0.24911738     0.25500
C325        C  0.09241821  0.76869743  0.22770793    -0.12100
C326        C  0.08418600  0.76867677  0.19646987    -0.26200
C327        C  0.04264953  0.75402250  0.18696931     0.36500
C328        C  0.01021956  0.73968376  0.20839435    -0.27800
F329        F  0.06904352  0.75445537  0.27901881    -0.19900
H330        H  0.12412202  0.77995551  0.23565017     0.15800
F331        F  0.03321981  0.75282914  0.15699960    -0.23600
H332        H  0.97839897  0.72818645  0.20062026     0.17600
C333        C  0.04159564  0.70993934  0.01437157    -0.27700
C334        C  0.01279156  0.72431586  0.01401564     0.05900
C335        C  0.01741666  0.75499734  0.03523675     0.25500
C336        C  0.05142490  0.77238768  0.05528361    -0.12200
C337        C  0.08125081  0.75920742  0.05491793    -0.26100
C338        C  0.07544934  0.72703292  0.03459271     0.36300
C339        C  0.97770513  0.70840718  0.49089216     0.05900
F340        F  0.98881649  0.76791202  0.03680321    -0.19900
H341        H  0.05450781  0.79645807  0.07100191     0.15800
F342        F  0.10290052  0.71263909  0.03362501    -0.23600
H343        H  0.03589750  0.68477112  0.49928306     0.17500
C344        C  0.97148621  0.73570616  0.47220241     0.25500
C345        C  0.93899216  0.71982150  0.45089648    -0.12100
C346        C  0.91219533  0.67640942  0.44750369    -0.26200
C347        C  0.91928356  0.64905083  0.46563962     0.36500
C348        C  0.95166486  0.66503068  0.48708973    -0.27800
F349        F  0.99741403  0.77778213  0.47403783    -0.19900
H350        H  0.93477054  0.74169564  0.43708639     0.15800
F351        F  0.89487016  0.60685796  0.46294266    -0.23600
H352        H  0.95782233  0.64274417  0.00051516     0.17600
C353        C  0.13654407  0.52666592  0.09858433    -0.27700
C354        C  0.15121464  0.55481729  0.12325530     0.05900
C355        C  0.16932399  0.54623087  0.14821964     0.25500
C356        C  0.17403273  0.51105720  0.14802979    -0.12200
C357        C  0.16116675  0.48367568  0.12287492    -0.27900
C358        C  0.14136132  0.49127083  0.09832721     0.36300
C359        C  0.15209309  0.59534999  0.12180771     0.05900
F360        F  0.18509264  0.57338302  0.17198153    -0.19900
H361        H  0.18942689  0.50628496  0.16730112     0.15800
F362        F  0.12763547  0.46529484  0.07383176    -0.23600
H363        H  0.12234072  0.53274899  0.07916463     0.17500
C364        C  0.17318233  0.62313890  0.09784746     0.25500
C365        C  0.17989663  0.66383972  0.09873538    -0.12100
C366        C  0.16602218  0.67793011  0.12359980    -0.26200
C367        C  0.14326165  0.64949021  0.14700826     0.36500
C368        C  0.13642563  0.60856122  0.14603582    -0.27800
F369        F  0.18980964  0.61188082  0.07453681    -0.19900
H370        H  0.19749978  0.68485351  0.08033675     0.15800
F371        F  0.12836482  0.66130577  0.17108632    -0.23600
H372        H  0.11992208  0.58745247  0.16466231     0.17600
C373        C  0.71698256  0.04227034  0.26210678    -0.27700
C374        C  0.73078850  0.01307566  0.26244364     0.05900
C375        C  0.75858419  0.01576550  0.28540213     0.25500
C376        C  0.77250437  0.04735072  0.30748736    -0.12200
C377        C  0.75926928  0.07702008  0.30690857    -0.26100
C378        C  0.73090226  0.07389936  0.28416012     0.36300
C379        C  0.71517625  0.97913157  0.23939963     0.05900
F380        F  0.77323834  0.98854908  0.28589565    -0.19900
H381        H  0.79472226  0.04941514  0.32447390     0.15800
F382        F  0.71630737  0.10117815  0.28338359    -0.23600
H383        H  0.69507251  0.04028996  0.24487918     0.17500
C384        C  0.69390437  0.93711915  0.24865210     0.25500
C385        C  0.67881316  0.90502851  0.22707201    -0.12100
C386        C  0.68479887  0.91398946  0.19576633    -0.26200
C387        C  0.70638725  0.95610594  0.18639506     0.36500
C388        C  0.72106462  0.98839981  0.20812442    -0.27800
F389        F  0.68678473  0.92708643  0.27861728    -0.19900
H390        H  0.66233452  0.87291076  0.23494683     0.15800
F391        F  0.71224236  0.96603602  0.15637814    -0.23600
H392        H  0.73728487  0.02067656  0.20059297     0.17600
C393        C  0.71911972  0.95158792  0.01117073    -0.27700
C394        C  0.70725275  0.98219921  0.01440588     0.05900
C395        C  0.67827995  0.97720821  0.03734084     0.25500
C396        C  0.66166672  0.94225531  0.05650382    -0.12200
C397        C  0.67440583  0.91240882  0.05352791    -0.26100
C398        C  0.70317787  0.91719685  0.03071010     0.36300
C399        C  0.72500440  0.01841976  0.49406664     0.05900
F400        F  0.66696415  0.00664509  0.04180969    -0.19900
H401        H  0.63959337  0.93894478  0.07414209     0.15800
F402        F  0.71488716  0.88793971  0.02677731    -0.23600
H403        H  0.74053328  0.95411736  0.99326341     0.17500
C404        C  0.76848604  0.04196286  0.48869717     0.25500
C405        C  0.78465880  0.07412628  0.46717692    -0.12100
C406        C  0.75805161  0.08425480  0.45111953    -0.26200
C407        C  0.71473419  0.06177551  0.45715698     0.36500
C408        C  0.69838438  0.02888723  0.47823408    -0.27800
F409        F  0.79513990  0.03225084  0.00209896    -0.19900
H410        H  0.81822645  0.09167248  0.46339248     0.15800
F411        F  0.68807809  0.07058446  0.44192344    -0.23600
H412        H  0.66478056  0.01098745  0.48169097     0.17600
C413        C  0.71788317  0.73046227  0.03893902    -0.27700
C414        C  0.70094091  0.72129556  0.00948846     0.05900
C415        C  0.66876591  0.72955031  0.00199679     0.25500
C416        C  0.65438980  0.74739881  0.02357169    -0.12200
C417        C  0.67207217  0.75772242  0.05292559    -0.26100
C418        C  0.70388920  0.74874339  0.06045976     0.36300
C419        C  0.71860686  0.70528202  0.48642070     0.05900
F420        F  0.65114363  0.72018567  0.97388139    -0.19900
H421        H  0.62977233  0.75374103  0.01705721     0.15800
F422        F  0.72191935  0.75799845  0.08842267    -0.23600
H423        H  0.74598802  0.72804206  0.54412918     0.17500
C424        C  0.73617853  0.72677934  0.45912718     0.25500
C425        C  0.75482381  0.71185471  0.43859447    -0.12100
C426        C  0.75608633  0.67510555  0.44481193    -0.26200
C427        C  0.73697597  0.65282734  0.47175461     0.36500
C428        C  0.71880447  0.66808789  0.49237239    -0.27800
F429        F  0.73686348  0.76314264  0.45292463    -0.19900
H430        H  0.76907645  0.72962673  0.41810726     0.15800
F431        F  0.73617314  0.61655025  0.47852583    -0.23600
H432        H  0.70453067  0.65000349  0.01355864     0.17600
C433        C  0.70833117  0.66402648  0.26278698    -0.27700
C434        C  0.72226342  0.70706465  0.26167922     0.05900
C435        C  0.75259154  0.73393885  0.28276753     0.25500
C436        C  0.76984534  0.71818937  0.30357021    -0.12200
C437        C  0.75701037  0.67528542  0.30404370    -0.26100
C438        C  0.72537741  0.64816472  0.28371588     0.36300
C439        C  0.70532293  0.72365537  0.23834525     0.05900
F440        F  0.76529035  0.77541600  0.28350678    -0.19900
H441        H  0.79363654  0.73980584  0.31915437     0.15800
F442        F  0.71142439  0.60642583  0.28347215    -0.23600
H443        H  0.68484610  0.64272016  0.24689209     0.17500
C444        C  0.73240196  0.75805391  0.22018578     0.25500
C445        C  0.71618619  0.77428021  0.19897871    -0.12100
C446        C  0.67264640  0.75649211  0.19515677    -0.26200
C447        C  0.64551552  0.72094533  0.21248799     0.36500
C448        C  0.66183323  0.70482168  0.23385163    -0.27800
F449        F  0.77465109  0.77571663  0.22259752    -0.19900
H450        H  0.73794515  0.80126778  0.18577591     0.15800
F451        F  0.60327265  0.70192906  0.20912919    -0.23600
H452        H  0.64039430  0.67799930  0.24734447     0.17600
C453        C  0.47396683  0.86464100  0.10639526    -0.27700
C454        C  0.44055519  0.84290844  0.12683356     0.05900
C455        C  0.44350790  0.81715450  0.14911497     0.25500
C456        C  0.47945597  0.81386381  0.15122545    -0.12200
C457        C  0.51225169  0.83476802  0.13046342    -0.26100
C458        C  0.50951217  0.86025304  0.10797279     0.36300
C459        C  0.40144451  0.84460075  0.12393629     0.05900
F460        F  0.41048432  0.79290061  0.16751117    -0.19900
H461        H  0.48055097  0.79277535  0.16782881     0.15800
F462        F  0.54080010  0.88010884  0.08728205    -0.23600
H463        H  0.47210390  0.88425068  0.08889602     0.17500
C464        C  0.38270649  0.85079515  0.14982848     0.25500
C465        C  0.34212393  0.84436754  0.14825895    -0.12100
C466        C  0.31996016  0.83279116  0.12069791    -0.26200
C467        C  0.33998668  0.83010403  0.09416831     0.36500
C468        C  0.38044692  0.83577739  0.09587738    -0.27800
F469        F  0.40322161  0.86179686  0.17688398    -0.19900
H470        H  0.32760378  0.84755221  0.16880614     0.15800
F471        F  0.31947144  0.81908095  0.06711707    -0.23600
H472        H  0.39442836  0.83101580  0.07563982     0.17600
C473        C  0.43752670  0.62677567  0.14765047    -0.27700
C474        C  0.43349620  0.59787619  0.12521196     0.05900
C475        C  0.46464785  0.61027525  0.10264009     0.25500
C476        C  0.49897265  0.65111174  0.10249662    -0.12200
C477        C  0.50274902  0.68020748  0.12479894    -0.26100
C478        C  0.47161193  0.66748504  0.14752782     0.36300
C479        C  0.39465028  0.55650162  0.12412563     0.05900
F480        F  0.46183267  0.58293698  0.08073786    -0.19900
H481        H  0.52251515  0.66002571  0.08485149     0.15800
F482        F  0.47298909  0.69474073  0.16899015    -0.23600
H483        H  0.41333681  0.61822787  0.16475082     0.17500
C484        C  0.37923164  0.53136846  0.15028401     0.25500
C485        C  0.33915464  0.49587353  0.15026262    -0.12100
C486        C  0.31375587  0.48490001  0.12419435    -0.26200
C487        C  0.33040803  0.50884205  0.09746235     0.36500
C488        C  0.37035350  0.54423889  0.09758667    -0.27800
F489        F  0.40255998  0.54175188  0.17607558    -0.19900
H490        H  0.32749928  0.47782462  0.17098813     0.15800
F491        F  0.30764784  0.49929153  0.07141322    -0.23600
H492        H  0.38147659  0.56330992  0.07726847     0.17600
O493        O  0.61925550  0.85268165  0.57749589    -0.81300
C494        C  0.65591077  0.77657306  0.67562280     0.98100
O495        O  0.68165455  0.80709704  0.65960803    -0.70400
O496        O  0.67701039  0.79274223  0.60069350    -0.74000
Al497      Al  0.67637520  0.83530966  0.62502546     1.49000
C498        C  0.65847802  0.77896216  0.57560344     0.93300
O499        O  0.55955797  0.73829153  0.60078044    -0.80200
O500        O  0.56542336  0.82704117  0.65278637    -0.73800
Al501      Al  0.59143264  0.79644698  0.59109496     1.90100
O502        O  0.54631363  0.74555114  0.64830764    -0.72800
O503        O  0.63350037  0.84514568  0.68269306    -0.72700
O504        O  0.61731865  0.76456512  0.67465342    -0.78400
O505        O  0.68303024  0.88128468  0.64946754    -0.76600
O506        O  0.62034514  0.80952701  0.62586977    -1.12700
O507        O  0.68334779  0.86916511  0.58999821    -0.71900
C508        C  0.65829347  0.87645187  0.57529306     0.98800
C509        C  0.53838580  0.72321686  0.62478081     0.95200
Al510      Al  0.59312127  0.79670487  0.66146351     1.55600
O511        O  0.62791184  0.78363818  0.56856586    -0.76500
C512        C  0.66539024  0.87885567  0.67469125     0.99400
C513        C  0.54431990  0.82308167  0.62924270     0.94300
O514        O  0.54873115  0.80667038  0.60539157    -0.81800
O515        O  0.14361657  0.76712365  0.57513988    -0.81300
C516        C  0.21939355  0.87842829  0.67442244     0.98100
O517        O  0.18822968  0.87326877  0.65902216    -0.70400
O518        O  0.20062770  0.88440641  0.60036478    -0.74000
Al519      Al  0.15954106  0.83995262  0.62421162     1.49000
C520        C  0.21370812  0.88093833  0.57461205     0.93300
O521        O  0.25835336  0.82656312  0.59667334    -0.80200
O522        O  0.17105684  0.73830661  0.64772682    -0.73800
Al523      Al  0.20020230  0.79762638  0.58783331     1.90100
O524        O  0.25294977  0.80374841  0.64347401    -0.72800
O525        O  0.15214426  0.78683293  0.68066285    -0.72700
O526        O  0.23192306  0.85233096  0.67259773    -0.78400
O527        O  0.11486547  0.79944968  0.64826345    -0.76600
O528        O  0.18682186  0.81142387  0.62344943    -1.12700
O529        O  0.12496879  0.81244388  0.58952178    -0.71900
C530        C  0.11815613  0.78052127  0.57421469     0.98800
C531        C  0.27476409  0.82105957  0.62004577     0.95200
Al532      Al  0.20075176  0.79645769  0.65811434     1.55600
O533        O  0.20961421  0.84635922  0.56628425    -0.76500
C534        C  0.11830608  0.78547180  0.67354253     0.99400
C535        C  0.17708594  0.72286451  0.62385555     0.94300
O536        O  0.19396005  0.74563358  0.60088263    -0.81800
O537        O  0.14041083  0.37412471  0.67518500    -0.81300
C538        C  0.21186880  0.33409550  0.57518491     0.98100
O539        O  0.17985772  0.30878902  0.59024584    -0.70400
O540        O  0.19524970  0.31211506  0.64913461    -0.74000
Al541      Al  0.15344885  0.31537437  0.62587840     1.49000
C542        C  0.21059237  0.33056885  0.67404660     0.93300
O543        O  0.25458670  0.42959751  0.65001664    -0.80200
O544        O  0.16593513  0.42772877  0.59964024    -0.73800
Al545      Al  0.19650682  0.40009745  0.66040897     1.90100
O546        O  0.24716957  0.44467645  0.60327855    -0.72800
O547        O  0.14695357  0.35925811  0.56891894    -0.72700
O548        O  0.22636182  0.37306536  0.57726818    -0.78400
O549        O  0.10801645  0.31167013  0.60235336    -0.76600
O550        O  0.18165034  0.37134855  0.62561179    -1.12700
O551        O  0.12116048  0.30966320  0.66172057    -0.71900
C552        C  0.11586126  0.33522378  0.67765053     0.98800
C553        C  0.27003555  0.45076610  0.62614572     0.95200
Al554      Al  0.19535070  0.39875385  0.59033068     1.55600
O555        O  0.20783397  0.36206606  0.68183323    -0.76500
C556        C  0.11221792  0.32850038  0.57658119     0.99400
C557        C  0.17175361  0.44983116  0.62312817     0.94300
O558        O  0.18844340  0.44453991  0.64650839    -0.81800
O559        O  0.85192062  0.62114917  0.92408968    -0.81300
C560        C  0.77795795  0.66032353  0.82598381     0.98100
O561        O  0.80895224  0.68610710  0.84176108    -0.70400
O562        O  0.79523408  0.68083939  0.90048977    -0.74000
Al563      Al  0.83747261  0.68001372  0.87612316     1.49000
C564        C  0.77907541  0.66088336  0.92467047     0.93300
O565        O  0.73867460  0.56288659  0.89801223    -0.80200
O566        O  0.82986142  0.57043949  0.84698158    -0.73800
Al567      Al  0.79646973  0.59410405  0.90886661     1.90100
O568        O  0.74786947  0.54978513  0.85094078    -0.72800
O569        O  0.84683814  0.63922590  0.81761586    -0.72700
O570        O  0.76627154  0.62181591  0.82648571    -0.78400
O571        O  0.88347071  0.68700496  0.85162226    -0.76600
O572        O  0.81111071  0.62407744  0.87461998    -1.12700
O573        O  0.87127964  0.68550555  0.91090245    -0.71900
C574        C  0.87703073  0.65992736  0.92631983     0.98800
C575        C  0.72474100  0.54144424  0.87404200     0.95200
Al576      Al  0.79884553  0.59779285  0.83866524     1.55600
O577        O  0.78268440  0.62970226  0.93151927    -0.76500
C578        C  0.88070051  0.67077791  0.82578300     0.99400
C579        C  0.82431762  0.54790855  0.87004457     0.94300
O580        O  0.80722982  0.55194317  0.89378654    -0.81800
O581        O  0.84847641  0.22927257  0.82812370    -0.81300
C582        C  0.77612184  0.11917766  0.92840064     0.98100
O583        O  0.80744006  0.12491941  0.91279129    -0.70400
O584        O  0.79188939  0.11098665  0.85369107    -0.74000
Al585      Al  0.83369297  0.15682285  0.87679521     1.49000
C586        C  0.77844485  0.11427091  0.82801404     0.93300
O587        O  0.73311055  0.16749780  0.85053173    -0.80200
O588        O  0.82006202  0.25740365  0.90092507    -0.73800
Al589      Al  0.79143975  0.19757460  0.84112795     1.90100
O590        O  0.73922935  0.19128002  0.89714349    -0.72800
O591        O  0.84059638  0.21024189  0.93289258    -0.72700
O592        O  0.76137504  0.14334017  0.92570276    -0.78400
O593        O  0.87866600  0.19923707  0.89978983    -0.76600
O594        O  0.80552931  0.18449421  0.87643191    -1.12700
O595        O  0.86637944  0.18287300  0.84099031    -0.71900
C596        C  0.87310848  0.21487190  0.82602414     0.98800
C597        C  0.71704839  0.17386321  0.87393438     0.95200
Al598      Al  0.79153846  0.19931448  0.91121292     1.55600
O599        O  0.78287723  0.14892743  0.81961796    -0.76500
C600        C  0.87507949  0.21349232  0.92508649     0.99400
C601        C  0.81208873  0.27177912  0.87747078     0.94300
O602        O  0.79605418  0.24897203  0.85435524    -0.81800
O603        O  0.37280124  0.14509513  0.82449148    -0.81300
C604        C  0.33321692  0.21498423  0.92547946     0.98100
O605        O  0.30792984  0.18294039  0.91037976    -0.70400
O606        O  0.30811470  0.19598459  0.85128031    -0.74000
Al607      Al  0.31414454  0.15612163  0.87476434     1.49000
C608        C  0.32656939  0.21261438  0.82666516     0.93300
O609        O  0.42688277  0.25896040  0.84872398    -0.80200
O610        O  0.42780932  0.17155502  0.89887105    -0.73800
Al611      Al  0.39784895  0.20092563  0.83884733     1.90100
O612        O  0.44377141  0.25248286  0.89516370    -0.72800
O613        O  0.36038163  0.15210429  0.93140772    -0.72700
O614        O  0.37234755  0.23067334  0.92260250    -0.78400
O615        O  0.31287332  0.11233899  0.89821051    -0.76600
O616        O  0.37012118  0.18589533  0.87412019    -1.12700
O617        O  0.30845908  0.12274275  0.83970389    -0.71900
C618        C  0.33441581  0.11793465  0.82387001     0.98800
C619        C  0.44917071  0.27478403  0.87206697     0.95200
Al620      Al  0.39865075  0.20046338  0.90898071     1.55600
O621        O  0.35855822  0.21111751  0.81831580    -0.76500
C622        C  0.32987275  0.11707192  0.92387306     0.99400
C623        C  0.44883842  0.17689843  0.87485297     0.94300
O624        O  0.44322061  0.19394397  0.85186487    -0.81800
C625        C  0.52264974  0.13740289  0.89677020    -0.27700
C626        C  0.55096283  0.15205768  0.87224285     0.05900
C627        C  0.54307856  0.17103608  0.84748513     0.25500
C628        C  0.50881067  0.17736527  0.84810863    -0.12200
C629        C  0.48176129  0.16506755  0.87344304    -0.26100
C630        C  0.48819656  0.14366739  0.89740767     0.36300
C631        C  0.59113083  0.15226695  0.87407894     0.05900
F632        F  0.57011959  0.18613173  0.82362200    -0.19900
H633        H  0.50456162  0.19357104  0.82916450     0.15800
F634        F  0.46199415  0.12973304  0.92176934    -0.23600
H635        H  0.52803409  0.12225256  0.91589636     0.17500
C636        C  0.61805903  0.17200785  0.89877245     0.25500
C637        C  0.65818556  0.17723841  0.89889824    -0.12100
C638        C  0.67263256  0.16329917  0.87432461    -0.26200
C639        C  0.64507133  0.14201015  0.85007970     0.36500
C640        C  0.60463752  0.13664142  0.85003048    -0.27800
F641        F  0.60659240  0.18870172  0.92191400    -0.19900
H642        H  0.67855790  0.19382826  0.91788462     0.15800
F643        F  0.65734136  0.12725713  0.82617241    -0.23600
H644        H  0.58414918  0.12115921  0.83086168     0.17600
C645        C  0.63116282  0.43693293  0.85259549    -0.27700
C646        C  0.59934719  0.43621446  0.87065759     0.05900
C647        C  0.60890170  0.47047202  0.88983437     0.25500
C648        C  0.64975515  0.50474605  0.89095093    -0.12200
C649        C  0.68156515  0.50544209  0.87284118    -0.26100
C650        C  0.67189124  0.47109408  0.85363775     0.36300
C651        C  0.55741719  0.39804637  0.87114811     0.05900
F652        F  0.57864565  0.47083762  0.90731832    -0.19900
H653        H  0.65648422  0.53086530  0.90581437     0.15800
F654        F  0.70214241  0.46967846  0.83678583    -0.23600
H655        H  0.62470557  0.41036369  0.83830874     0.17500
C656        C  0.53535972  0.37999538  0.84405456     0.25500
C657        C  0.49866934  0.34081842  0.84460188    -0.12100
C658        C  0.48363939  0.31893480  0.87213282    -0.26200
C659        C  0.50445435  0.33837407  0.89942856     0.36500
C660        C  0.54098861  0.37743813  0.89881739    -0.27800
F661        F  0.54983027  0.39984811  0.81702029    -0.19900
H662        H  0.48309458  0.32684686  0.82331690     0.15800
F663        F  0.49037117  0.31917403  0.92672388    -0.23600
H664        H  0.55752703  0.39078998  0.91992446     0.17600
C665        C  0.83226197  0.45467218  0.84351751    -0.27700
C666        C  0.83695127  0.43898652  0.87145522     0.05900
C667        C  0.84360788  0.46279473  0.89802022     0.25500
C668        C  0.84244919  0.50000711  0.89690870    -0.12200
C669        C  0.83492378  0.51429233  0.86933702    -0.26100
C670        C  0.83144324  0.49215849  0.84235077     0.36300
C671        C  0.83119112  0.39632154  0.87315125     0.05900
F672        F  0.84808092  0.44856994  0.92540239    -0.19900
H673        H  0.84543689  0.51669329  0.91795587     0.15800
F674        F  0.82398853  0.50486070  0.81528944    -0.23600
H675        H  0.82761281  0.43697782  0.82273159     0.17500
C676        C  0.79480822  0.36209475  0.86109543     0.25500
C677        C  0.78911414  0.32183274  0.86274429    -0.12100
C678        C  0.81907460  0.31472409  0.87693506    -0.26200
C679        C  0.85500061  0.34863947  0.88967823     0.36500
C680        C  0.86107995  0.38922716  0.88761948    -0.27800
F681        F  0.76419223  0.36741600  0.84845651    -0.19900
H682        H  0.76083948  0.29593531  0.85326259     0.15800
F683        F  0.88476016  0.34274633  0.90312740    -0.23600
H684        H  0.88929294  0.41520080  0.89705440     0.17600
C685        C  0.04997449  0.31620028  0.50473574    -0.27700
C686        C  0.01164238  0.28028071  0.51117215     0.05900
C687        C  0.00635957  0.25985550  0.53921451     0.25500
C688        C  0.03886251  0.27576117  0.56062956    -0.12200
C689        C  0.07722072  0.31212871  0.55436270    -0.26100
C690        C  0.08242671  0.33210613  0.52596305     0.36300
C691        C  0.97560000  0.26335624  0.99002569     0.05900
F692        F  0.97011549  0.22399801  0.54558064    -0.19900
H693        H  0.03412933  0.25937506  0.58197471     0.15800
F694        F  0.11884259  0.36715400  0.51845767    -0.23600
H695        H  0.04981921  0.33486689  0.98656280     0.17500
C696        C  0.93516692  0.25410832  0.99863551     0.25500
C697        C  0.90301250  0.23885880  0.97717142    -0.12100
C698        C  0.91053968  0.23252989  0.94671142    -0.26200
C699        C  0.95143733  0.24308191  0.93792350     0.36500
C700        C  0.98364982  0.25846031  0.95946584    -0.27800
F701        F  0.92693551  0.26045540  0.02770205    -0.19900
H702        H  0.87196876  0.23140018  0.98459616     0.15800
F703        F  0.96039969  0.23865397  0.90862296    -0.23600
H704        H  0.01498306  0.26275730  0.45140508     0.17600
C705        C  0.03944293  0.26860978  0.73906958    -0.27700
C706        C  0.01404515  0.28693168  0.74224269     0.05900
C707        C  0.02344424  0.32229426  0.72433875     0.25500
C708        C  0.05714186  0.33846767  0.70381146    -0.12200
C709        C  0.08125944  0.31903684  0.70001462    -0.26100
C710        C  0.07220192  0.28397604  0.71788992     0.36300
C711        C  0.97776852  0.26862936  0.76386271     0.05900
F712        F  0.99922825  0.34039903  0.72577148    -0.19900
H713        H  0.06363202  0.36547313  0.69017583     0.15800
F714        F  0.09576328  0.26519900  0.71545238    -0.23600
H715        H  0.03409457  0.24233822  0.75312592     0.17500
C716        C  0.95151537  0.22485505  0.76631937     0.25500
C717        C  0.91815227  0.20792401  0.78698125    -0.12100
C718        C  0.90916414  0.23398893  0.80491658    -0.26200
C719        C  0.93468451  0.27761155  0.80231490     0.36500
C720        C  0.96904117  0.29468314  0.78234244    -0.27800
F721        F  0.95713171  0.19825335  0.74809704    -0.19900
H722        H  0.89849190  0.17419136  0.78840056     0.15800
F723        F  0.92718083  0.30365290  0.81972126    -0.23600
H724        H  0.98909525  0.32836800  0.78161132     0.17600
C725        C  0.23868362  0.25825517  0.71609070    -0.27700
C726        C  0.26429207  0.28457085  0.73950142     0.05900
C727        C  0.27423988  0.32662636  0.74008515     0.25500
C728        C  0.25752587  0.34154402  0.71820453    -0.12200
C729        C  0.23096865  0.31499352  0.69515234    -0.26100
C730        C  0.22225567  0.27324575  0.69399296     0.36300
C731        C  0.28001538  0.26774838  0.76339039     0.05900
F732        F  0.29877386  0.35282856  0.76248810    -0.19900
H733        H  0.26491343  0.37387314  0.71958489     0.15800
F734        F  0.19656021  0.24642329  0.67232638    -0.23600
H735        H  0.23111489  0.22585248  0.71510536     0.17500
C736        C  0.25202098  0.23261275  0.78060612     0.25500
C737        C  0.26721504  0.21582007  0.80227005    -0.12100
C738        C  0.31051076  0.23334569  0.80663116    -0.26200
C739        C  0.33846804  0.26916419  0.78999450     0.36500
C740        C  0.32324491  0.28632130  0.76870032    -0.27800
F741        F  0.20999825  0.21451942  0.77638305    -0.19900
H742        H  0.24523766  0.18821410  0.81483813     0.15800
F743        F  0.38051862  0.28752931  0.79432264    -0.23600
H744        H  0.34526417  0.31350013  0.75576225     0.17600
C745        C  0.26868745  0.22306252  0.98919086    -0.27700
C746        C  0.28353097  0.26637045  0.99028732     0.05900
C747        C  0.31574017  0.29284242  0.97006001     0.25500
C748        C  0.33240507  0.27612683  0.94927394    -0.12200
C749        C  0.31648313  0.23279823  0.94773240    -0.26100
C750        C  0.28454889  0.20633864  0.96789325     0.36300
C751        C  0.26617668  0.28506820  0.51226068     0.05900
F752        F  0.33020227  0.33467126  0.96964862    -0.19900
H753        H  0.35699386  0.29688876  0.93382200     0.15800
F754        F  0.26953146  0.16437345  0.96757506    -0.23600
H755        H  0.24767560  0.20414977  0.50614356     0.17500
C756        C  0.22246250  0.26479347  0.51676449     0.25500
C757        C  0.20529768  0.28064865  0.53768332    -0.12100
C758        C  0.23111671  0.31745589  0.55402018    -0.26200
C759        C  0.27471282  0.33800642  0.54949915     0.36500
C760        C  0.29206177  0.32163298  0.52903110    -0.27800
F761        F  0.19613185  0.23033768  0.50028765    -0.19900
H762        H  0.17155678  0.26467543  0.54056718     0.15800
F763        F  0.30055642  0.37322929  0.56542658    -0.23600
H764        H  0.32581657  0.33737256  0.52648439     0.17600
C765        C  0.26548134  0.94803455  0.50503356    -0.27700
C766        C  0.26407732  0.98443282  0.51204228     0.05900
C767        C  0.24716393  0.98715311  0.54013818     0.25500
C768        C  0.23181723  0.95383132  0.56069251    -0.12200
C769        C  0.23263582  0.91705656  0.55351324    -0.26100
C770        C  0.25000702  0.91466063  0.52544018     0.36300
C771        C  0.28128106  0.01790348  0.98993438     0.05900
F772        F  0.24400931  0.02131628  0.54727174    -0.19900
H773        H  0.21838581  0.95649143  0.58196179     0.15800
F774        F  0.25195044  0.88007854  0.51745238    -0.23600
H775        H  0.27889318  0.94393479  0.98404207     0.17500
C776        C  0.31123822  0.05899221  0.99823253     0.25500
C777        C  0.32704226  0.09078061  0.97650525    -0.12100
C778        C  0.31342241  0.08232521  0.94607035    -0.26200
C779        C  0.28359256  0.04107878  0.93774235     0.36500
C780        C  0.26779754  0.00926485  0.95953375    -0.27800
F781        F  0.32613839  0.06823267  0.02713134    -0.19900
H782        H  0.34997095  0.12220029  0.98363597     0.15800
F783        F  0.26992817  0.03129138  0.90859138    -0.23600
H784        H  0.24480761  0.97772306  0.95268040     0.17600
C785        C  0.26310498  0.01624514  0.78218979    -0.27700
C786        C  0.29146719  0.01295745  0.76261717     0.05900
C787        C  0.33428650  0.04289902  0.76442505     0.25500
C788        C  0.34816503  0.07646445  0.78483384    -0.12200
C789        C  0.31961217  0.08064403  0.80386458    -0.26100
C790        C  0.27689455  0.04946991  0.80279598     0.36300
C791        C  0.27541157  0.97976403  0.73911325     0.05900
F792        F  0.36236377  0.04073531  0.74551722    -0.19900
H793        H  0.38122240  0.09971064  0.78522467     0.15800
F794        F  0.24817046  0.05123618  0.82123027    -0.23600
H795        H  0.23000209  0.99317748  0.78120561     0.17500
C796        C  0.28784982  0.94946709  0.73810989     0.25500
C797        C  0.27036196  0.91714641  0.71651614    -0.12100
C798        C  0.24025946  0.91458432  0.69558837    -0.26200
C799        C  0.22893158  0.94587578  0.69619752     0.36500
C800        C  0.24622380  0.97786749  0.71786013    -0.27800
F801        F  0.31560139  0.95021748  0.75871959    -0.19900
H802        H  0.27966937  0.89355612  0.71667455     0.15800
F803        F  0.20085798  0.94555755  0.67609805    -0.23600
H804        H  0.23664963  0.00127222  0.71816556     0.17600
C805        C  0.94977104  0.68258593  0.75790358    -0.27700
C806        C  0.98323630  0.72351150  0.76165374     0.05900
C807        C  0.98325453  0.74715177  0.78688887     0.25500
C808        C  0.95025324  0.72979479  0.80803060    -0.12200
C809        C  0.91664069  0.68870346  0.80425142    -0.26100
C810        C  0.91690492  0.66522104  0.77889984     0.36300
C811        C  0.01800589  0.74064690  0.73920425     0.05900
F812        F  0.01459727  0.78732719  0.79064603    -0.19900
H813        H  0.95064226  0.74873959  0.82705417     0.15800
F814        F  0.88567931  0.62514187  0.77446109    -0.23600
H815        H  0.94937296  0.66376858  0.73877586     0.17500
C816        C  0.05951789  0.75520261  0.74848999     0.25500
C817        C  0.09170792  0.76900326  0.72692439    -0.12100
C818        C  0.08328098  0.76903543  0.69572269    -0.26200
C819        C  0.04170343  0.75471693  0.68644726     0.36500
C820        C  0.00940919  0.74032518  0.70803112    -0.27800
F821        F  0.06877660  0.75497553  0.77834383    -0.19900
H822        H  0.12344766  0.78012933  0.73472695     0.15800
F823        F  0.03209542  0.75390128  0.65655101    -0.23600
H824        H  0.97754004  0.72895136  0.70042385     0.17600
C825        C  0.03980366  0.70943362  0.51472094    -0.27700
C826        C  0.01193762  0.72494862  0.51374285     0.05900
C827        C  0.01750377  0.75663240  0.53431975     0.25500
C828        C  0.05161919  0.77392947  0.55424023    -0.12200
C829        C  0.08059101  0.75965623  0.55440569    -0.26100
C830        C  0.07372743  0.72640635  0.53485830     0.36300
C831        C  0.97859012  0.70775172  0.99111420     0.05900
F832        F  0.98974461  0.77064357  0.53538771    -0.19900
H833        H  0.05548167  0.79882684  0.56941080     0.15800
F834        F  0.10014882  0.71075416  0.53461435    -0.23600
H835        H  0.03846570  0.68611106  0.99838872     0.17500
C836        C  0.97185910  0.73510173  0.97288795     0.25500
C837        C  0.93932727  0.71928014  0.95161201    -0.12100
C838        C  0.91287248  0.67586915  0.94784764    -0.26200
C839        C  0.92041597  0.64845684  0.96555220     0.36500
C840        C  0.95297195  0.66438251  0.98689838    -0.27800
F841        F  0.99727054  0.77720906  0.97521079    -0.19900
H842        H  0.93473675  0.74121801  0.93817379     0.15800
F843        F  0.89626354  0.60627621  0.96254465    -0.23600
H844        H  0.95611145  0.64342006  0.50105808     0.17600
C845        C  0.13969035  0.52837951  0.59760999    -0.27700
C846        C  0.15164284  0.55520987  0.62299322     0.05900
C847        C  0.16655033  0.54502710  0.64907033     0.25500
C848        C  0.17114669  0.50971396  0.64923593    -0.12200
C849        C  0.16122347  0.48380072  0.62337869    -0.27900
C850        C  0.14427370  0.49287392  0.59773157     0.36300
C851        C  0.15318878  0.59606487  0.62125400     0.05900
F852        F  0.17942359  0.57081633  0.67369026    -0.19900
H853        H  0.18416779  0.50368384  0.66937561     0.15800
F854        F  0.13346875  0.46844061  0.57242945    -0.23600
H855        H  0.12794735  0.53567637  0.57733364     0.17500
C856        C  0.17751475  0.62496083  0.59867008     0.25500
C857        C  0.18390392  0.66555846  0.59932059    -0.12100
C858        C  0.16640752  0.67841603  0.62256260    -0.26200
C859        C  0.14057240  0.64894064  0.64450008     0.36500
C860        C  0.13415593  0.60813367  0.64381568    -0.27800
F861        F  0.19730507  0.61476475  0.57703156    -0.19900
H862        H  0.20398422  0.68745035  0.58212391     0.15800
F863        F  0.12191492  0.65955033  0.66673959    -0.23600
H864        H  0.11507494  0.58614750  0.66131106     0.17600
C865        C  0.71751805  0.04540585  0.76107524    -0.27700
C866        C  0.72664584  0.01292687  0.76321171     0.05900
C867        C  0.75076621  0.01244104  0.78775218     0.25500
C868        C  0.76638827  0.04468343  0.80945209    -0.12200
C869        C  0.75859998  0.07814989  0.80677243    -0.26100
C870        C  0.73343284  0.07786591  0.78249024     0.36300
C871        C  0.71097876  0.97970583  0.73971284     0.05900
F872        F  0.75907419  0.98069448  0.79070284    -0.19900
H873        H  0.78551181  0.04403824  0.82789030     0.15800
F874        F  0.72416677  0.10895959  0.77934610    -0.23600
H875        H  0.69859666  0.04595785  0.74244038     0.17500
C876        C  0.66797704  0.95074770  0.73736924     0.25500
C877        C  0.65352279  0.91852057  0.71581941    -0.12100
C878        C  0.68153638  0.91511178  0.69574237    -0.26200
C879        C  0.72450696  0.94501526  0.69746315     0.36500
C880        C  0.73906515  0.97679730  0.71952951    -0.27800
F881        F  0.64012251  0.95303550  0.75645402    -0.19900
H882        H  0.62025869  0.89602270  0.71488086     0.15800
F883        F  0.75256777  0.94259666  0.67870893    -0.23600
H884        H  0.77232781  0.99915043  0.72097142     0.17600
C885        C  0.72064474  0.95236049  0.51283267    -0.27700
C886        C  0.70739965  0.98202836  0.51514412     0.05900
C887        C  0.67728985  0.97625182  0.53736442     0.25500
C888        C  0.66094675  0.94148454  0.55672571    -0.12200
C889        C  0.67501202  0.91256811  0.55466359    -0.26100
C890        C  0.70492079  0.91814956  0.53255331     0.36300
C891        C  0.72499870  0.01872480  0.99350772     0.05900
F892        F  0.66452774  0.00473533  0.54093448    -0.19900
H893        H  0.63793837  0.93755582  0.57376926     0.15800
F894        F  0.71790062  0.88975407  0.52940915    -0.23600
H895        H  0.74296790  0.95546822  0.49548062     0.17500
C896        C  0.76828407  0.04115814  0.98723631     0.25500
C897        C  0.78441191  0.07348264  0.96587811    -0.12100
C898        C  0.75798307  0.08478964  0.95082960    -0.26200
C899        C  0.71492568  0.06341966  0.95778887     0.36500
C900        C  0.69859337  0.03041633  0.97873852    -0.27800
F901        F  0.79546784  0.03432932  0.50464161    -0.19900
H902        H  0.81782918  0.09016509  0.96139053     0.15800
F903        F  0.68843441  0.07339806  0.94357609    -0.23600
H904        H  0.66511917  0.01335658  0.98290276     0.17600
C905        C  0.72016871  0.73300032  0.53855149    -0.27700
C906        C  0.70197398  0.72252549  0.50950204     0.05900
C907        C  0.66858511  0.72919890  0.50269589     0.25500
C908        C  0.65414424  0.74668151  0.52453978    -0.12200
C909        C  0.67293844  0.75823003  0.55351758    -0.26100
C910        C  0.70608982  0.75092906  0.56035115     0.36300
C911        C  0.71798643  0.70420436  0.98665052     0.05900
F912        F  0.64975855  0.71851986  0.47501154    -0.19900
H913        H  0.62849451  0.75169259  0.51853048     0.15800
F914        F  0.72531111  0.76147212  0.58788224    -0.23600
H915        H  0.74278188  0.72432831  0.04504078     0.17500
C916        C  0.73603181  0.72592860  0.95952611     0.25500
C917        C  0.75509718  0.71123812  0.93923315    -0.12100
C918        C  0.75649810  0.67460383  0.94557386    -0.26200
C919        C  0.73725710  0.65226009  0.97246045     0.36500
C920        C  0.71846382  0.66718495  0.99278775    -0.27800
F921        F  0.73685735  0.76235307  0.95329319    -0.19900
H922        H  0.76956204  0.72911894  0.91882535     0.15800
F923        F  0.73697043  0.61630162  0.97947566    -0.23600
H924        H  0.70506761  0.65098275  0.51320332     0.17600
C925        C  0.70623298  0.66431271  0.76570626    -0.27700
C926        C  0.72143227  0.70753823  0.76364616     0.05900
C927        C  0.75298388  0.73469154  0.78391838     0.25500
C928        C  0.77042427  0.71898623  0.80459042    -0.12200
C929        C  0.75646078  0.67586650  0.80582107    -0.26100
C930        C  0.72331846  0.64849932  0.78661128     0.36300
C931        C  0.70452464  0.72395378  0.74014907     0.05900
F932        F  0.76677023  0.77641318  0.78397226    -0.19900
H933        H  0.79530318  0.74079635  0.81940995     0.15800
F934        F  0.70784425  0.60650183  0.78745329    -0.23600
H935        H  0.68171158  0.64275002  0.75054792     0.17500
C936        C  0.73163321  0.75780267  0.72155344     0.25500
C937        C  0.71544429  0.77384445  0.70019917    -0.12100
C938        C  0.67190990  0.75635813  0.69659786    -0.26200
C939        C  0.64473227  0.72117701  0.71420602     0.36500
C940        C  0.66101147  0.70532310  0.73579935    -0.27800
F941        F  0.77387438  0.77509777  0.72364770    -0.19900
H942        H  0.73723826  0.80048476  0.68671722     0.15800
F943        F  0.60249268  0.70224797  0.71087077    -0.23600
H944        H  0.63951265  0.67885839  0.74955954     0.17600
C945        C  0.47320589  0.86400811  0.60565420    -0.27700
C946        C  0.44014793  0.84326858  0.62656582     0.05900
C947        C  0.44333448  0.81803388  0.64920673     0.25500
C948        C  0.47911569  0.81444246  0.65125627    -0.12200
C949        C  0.51142925  0.83422284  0.62998807    -0.26100
C950        C  0.50846889  0.85909518  0.60709354     0.36300
C951        C  0.40108847  0.84525034  0.62371233     0.05900
F952        F  0.41063291  0.79438894  0.66802349    -0.19900
H953        H  0.48037477  0.79387917  0.66825090     0.15800
F954        F  0.53930869  0.87795906  0.58594851    -0.23600
H955        H  0.47128587  0.88324342  0.58787897     0.17500
C956        C  0.38184582  0.85057492  0.64969450     0.25500
C957        C  0.34123473  0.84407771  0.64801130    -0.12100
C958        C  0.31956776  0.83356856  0.62024211    -0.26200
C959        C  0.34024562  0.83222414  0.59364312     0.36500
C960        C  0.38064483  0.83771436  0.59547219    -0.27800
F961        F  0.40189324  0.86088822  0.67693863    -0.19900
H962        H  0.32632547  0.84643373  0.66862995     0.15800
F963        F  0.32045213  0.82273260  0.56630929    -0.23600
H964        H  0.39497988  0.83380252  0.57510277     0.17600
C965        C  0.43810155  0.62576774  0.64843854    -0.27700
C966        C  0.43465549  0.59671870  0.62632838     0.05900
C967        C  0.46614488  0.60912027  0.60402042     0.25500
C968        C  0.50010139  0.65018085  0.60369975    -0.12200
C969        C  0.50322376  0.67944403  0.62562342    -0.26100
C970        C  0.47186379  0.66664752  0.64819067     0.36300
C971        C  0.39590140  0.55527956  0.62513885     0.05900
F972        F  0.46398515  0.58157127  0.58253573    -0.19900
H973        H  0.52388554  0.65912932  0.58623695     0.15800
F974        F  0.47267742  0.69399237  0.66934081    -0.23600
H975        H  0.41366443  0.61721166  0.66533648     0.17500
C976        C  0.37986441  0.53052111  0.65141975     0.25500
C977        C  0.33958703  0.49535415  0.65129509    -0.12100
C978        C  0.31461527  0.48435182  0.62500271    -0.26200
C979        C  0.33196238  0.50767371  0.59813094     0.36500
C980        C  0.37210425  0.54277595  0.59835691    -0.27800
F981        F  0.40271550  0.54105382  0.67744824    -0.19900
H982        H  0.32740898  0.47767985  0.67212287     0.15800
F983        F  0.30970324  0.49780148  0.57182852    -0.23600
H984        H  0.38372872  0.56151080  0.57791675     0.17600
loop_ 
_geom_bond_atom_site_label_1 
_geom_bond_atom_site_label_2 
_geom_bond_distance 
_geom_bond_site_symmetry_2 
_ccdc_geom_bond_type 
O1           C16   1.258       .  A
O1           Al9   1.894       .  S
C2           O12   1.261       .  A
C2            O3   1.265       .  A
C2          C446   1.484       .  S
O3           Al5   1.918       .  S
O4            C6   1.262       .  A
O4           Al5   1.901       .  S
Al5          O13   1.916       .  S
Al5          O15   1.919       .  S
Al5          O14   1.783       .  S
C6           O19   1.262       .  A
C6          C417   1.483       .  S
O7           C17   1.262       .  A
O7           Al9   1.907       .  S
O8           C21   1.261       .  A
O8          Al18   1.896       .  S
Al9          O22   1.896       .  S
Al9          O19   1.908       .  S
Al9          O14   1.782       .  S
O10          C17   1.260       .  A
O10         Al18   1.902       .  S
O11          C20   1.261       .  A
O11         Al18   1.905       .  S
O12         Al18   1.897       .  S
O13          C20   1.263       .  A
O14         Al18   1.783       .  S
O15          C16   1.262       .  A
C16         C397   1.468       .  S
C17         C477   1.480       .  S
C20         C386   1.481       .  S
C21          O22   1.259       .  A
C21         C457   1.460       .  S
O23          C38   1.260       .  A
O23         Al31   1.890       .  S
C24          O34   1.261       .  A
C24          O25   1.264       .  A
C24         C306   1.485       .  S
O25         Al27   1.917       .  S
O26          C28   1.259       .  A
O26         Al27   1.896       .  S
Al27         O35   1.894       .  S
Al27         O37   1.923       .  S
Al27         O36   1.782       .  S
C28          O41   1.260       .  A
C28         C277   1.481       .  S
O29          C39   1.260       .  A
O29         Al31   1.893       .  S
O30          C43   1.263       .  A
O30         Al40   1.910       .  S
Al31         O44   1.902       .  S
Al31         O41   1.904       .  S
Al31         O36   1.785       .  S
O32          C39   1.264       .  A
O32         Al40   1.911       .  S
O33          C42   1.262       .  A
O33         Al40   1.914       .  S
O34         Al40   1.896       .  S
O35          C42   1.259       .  A
O36         Al40   1.785       .  S
O37          C38   1.266       .  A
C38         C337   1.485       .  S
C39         C466   1.472       .  S
C42         C326   1.480       .  S
C43          O44   1.261       .  A
C43         C366   1.483       .  S
O45          C60   1.261       .  A
O45         Al53   1.907       .  S
C46          O56   1.261       .  A
C46          O47   1.264       .  A
C46         C266   1.475       .  S
O47         Al49   1.919       .  S
O48          C50   1.262       .  A
O48         Al49   1.901       .  S
Al49         O57   1.910       .  S
Al49         O59   1.918       .  S
Al49         O58   1.787       .  S
C50          O63   1.261       .  A
C50         C237   1.479       .  S
O51          C61   1.262       .  A
O51         Al53   1.910       .  S
O52          C65   1.264       .  A
O52         Al62   1.911       .  S
Al53         O66   1.899       .  S
Al53         O63   1.901       .  S
Al53         O58   1.781       .  S
O54          C61   1.258       .  A
O54         Al62   1.896       .  S
O55          C64   1.259       .  A
O55         Al62   1.893       .  S
O56         Al62   1.902       .  S
O57          C64   1.264       .  A
O58         Al62   1.782       .  S
O59          C60   1.263       .  A
C60         C217   1.479       .  S
C61         C486   1.483       .  S
C64         C197   1.481       .  S
C65          O66   1.262       .  A
C65         C357   1.484       .  S
O67          C82   1.259       .  A
O67         Al75   1.889       .  S
C68          O78   1.262       .  A
C68          O69   1.265       .  A
C68         C437   1.485       .  S
O69         Al71   1.918       .  S
O70          C72   1.260       .  A
O70         Al71   1.902       .  S
Al71         O79   1.909       .  S
Al71         O81   1.921       .  S
Al71         O80   1.788       .  S
C72          O85   1.260       .  A
C72         C426   1.486       .  S
O73          C83   1.260       .  A
O73         Al75   1.903       .  S
O74          C87   1.263       .  A
O74         Al84   1.905       .  S
Al75         O88   1.907       .  S
Al75         O85   1.906       .  S
Al75         O80   1.784       .  S
O76          C83   1.260       .  A
O76         Al84   1.905       .  S
O77          C86   1.259       .  A
O77         Al84   1.898       .  S
O78         Al84   1.895       .  S
O79          C86   1.262       .  A
O80         Al84   1.787       .  S
O81          C82   1.265       .  A
C82         C346   1.485       .  S
C83         C157   1.476       .  S
C86         C317   1.484       .  S
C87          O88   1.263       .  A
C87         C177   1.480       .  S
O89         C104   1.263       .  A
O89         Al97   1.909       .  S
C90         O100   1.261       .  A
C90          O91   1.265       .  A
C90         C406   1.479       .  S
O91         Al93   1.924       .  S
O92          C94   1.263       .  A
O92         Al93   1.907       .  S
Al93        O101   1.902       .  S
Al93        O103   1.921       .  S
Al93        O102   1.784       .  S
C94         O107   1.261       .  A
C94         C377   1.480       .  S
O95         C105   1.263       .  A
O95         Al97   1.906       .  S
O96         C109   1.262       .  A
O96        Al106   1.911       .  S
Al97        O110   1.906       .  S
Al97        O107   1.906       .  S
Al97        O102   1.781       .  S
O98         C105   1.263       .  A
O98        Al106   1.905       .  S
O99         C108   1.262       .  A
O99        Al106   1.906       .  S
O100       Al106   1.902       .  S
O101        C108   1.262       .  A
O102       Al106   1.781       .  S
O103        C104   1.264       .  A
C104        C226   1.478       .  S
C105        C146   1.481       .  S
C108        C206   1.482       .  S
C109        O110   1.261       .  A
C109        C186   1.476       .  S
O111        C126   1.259       .  A
O111       Al119   1.890       .  S
C112        O122   1.261       .  A
C112        O113   1.266       .  A
C112        C257   1.469       .  S
O113       Al115   1.923       .  S
O114        C116   1.260       .  A
O114       Al115   1.898       .  S
Al115       O123   1.897       .  S
Al115       O125   1.916       .  S
Al115       O124   1.786       .  S
C116        O129   1.260       .  A
C116        C246   1.471       .  S
O117        C127   1.260       .  A
O117       Al119   1.901       .  S
O118        C131   1.263       .  A
O118       Al128   1.904       .  S
Al119       O132   1.906       .  S
Al119       O129   1.899       .  S
Al119       O124   1.783       .  S
O120        C127   1.260       .  A
O120       Al128   1.905       .  S
O121        C130   1.260       .  A
O121       Al128   1.906       .  S
O122       Al128   1.897       .  S
O123        C130   1.259       .  A
O124       Al128   1.782       .  S
O125        C126   1.263       .  A
C126        C297   1.485       .  S
C127        C166   1.481       .  S
C130        C286   1.479       .  S
C131        O132   1.263       .  A
C131        C137   1.482       .  S
C133        C134   1.405       .  A
C133        C138   1.399       .  A
C133        H143   1.083       .  S
C134        C139   1.479       .  S
C134        C135   1.403       .  A
C135        C136   1.395       .  A
C135        F140   1.358       .  S
C136        C137   1.408       .  A
C136        H141   1.083       .  S
C137        C138   1.408       .  A
C138        F142   1.357       .  S
C139        C144   1.403       .  A
C139        C148   1.405       .  A
C144        C145   1.393       .  A
C144        F149   1.358       .  S
C145        C146   1.407       .  A
C145        H150   1.083       .  S
C146        C147   1.409       .  A
C147        C148   1.401       .  A
C147        F151   1.357       .  S
C148        H152   1.083       .  S
C153        C154   1.402       .  A
C153        C158   1.395       .  A
C153        H163   1.083       .  S
C154        C159   1.480       .  S
C154        C155   1.407       .  A
C155        C156   1.400       .  A
C155        F160   1.357       .  S
C156        C157   1.404       .  A
C156        H161   1.083       .  S
C157        C158   1.408       .  A
C158        F162   1.358       .  S
C159        C164   1.406       .  A
C159        C168   1.401       .  A
C164        C165   1.399       .  A
C164        F169   1.358       .  S
C165        C166   1.406       .  A
C165        H170   1.083       .  S
C166        C167   1.410       .  A
C167        C168   1.396       .  A
C167        F171   1.358       .  S
C168        H172   1.083       .  S
C173        C174   1.407       .  A
C173        C178   1.400       .  A
C173        H183   1.083       .  S
C174        C179   1.483       .  S
C174        C175   1.404       .  A
C175        C176   1.396       .  A
C175        F180   1.357       .  S
C176        C177   1.406       .  A
C176        H181   1.084       .  S
C177        C178   1.407       .  A
C178        F182   1.358       .  S
C179        C184   1.406       .  A
C179        C188   1.407       .  A
C184        C185   1.395       .  A
C184        F189   1.358       .  S
C185        C186   1.405       .  A
C185        H190   1.084       .  S
C186        C187   1.405       .  A
C187        C188   1.402       .  A
C187        F191   1.357       .  S
C188        H192   1.083       .  S
C193        C194   1.398       .  A
C193        C198   1.392       .  A
C193        H695   1.084   1_554  S
C194        C691   1.476   1_454  S
C194        C195   1.407       .  A
C195        C196   1.400       .  A
C195        F200   1.357   1_455  S
C196        C197   1.405       .  A
C196        H201   1.083       .  S
C197        C198   1.413       .  A
C198        F202   1.358       .  S
C199        C686   1.480   1_655  S
C199        C204   1.403       .  A
C199        C208   1.405       .  A
H203        C685   1.084       .  S
C204        C205   1.395       .  A
C204        F209   1.358       .  S
C205        C206   1.408       .  A
C205        H210   1.083       .  S
C206        C207   1.409       .  A
C207        C208   1.400       .  A
C207        F211   1.357       .  S
C208        H704   1.083   1_655  S
H212        C700   1.083   1_455  S
C213        C214   1.408       .  A
C213        C218   1.398       .  A
C213        H223   1.082       .  S
C214        C219   1.498   1_455  S
C214        C215   1.413       .  A
C215        C216   1.403       .  A
C215        F220   1.357   1_455  S
C216        C217   1.403       .  A
C216        H221   1.083       .  S
C217        C218   1.405       .  A
C218        F222   1.358       .  S
C219        C224   1.412       .  A
C219        C228   1.410       .  A
C224        C225   1.398       .  A
C224        F229   1.357       .  S
C225        C226   1.402       .  A
C225        H230   1.084       .  S
C226        C227   1.404       .  A
C227        C228   1.403       .  A
C227        F231   1.357       .  S
C228        H232   1.082       .  S
C233        C234   1.403       .  A
C233        C238   1.397       .  A
C233        H243   1.084       .  S
C234        C239   1.476       .  S
C234        C235   1.403       .  A
C235        C236   1.396       .  A
C235        F240   1.358       .  S
C236        C237   1.408       .  A
C236        H241   1.084       .  S
C237        C238   1.407       .  A
C238        F242   1.357       .  S
C239        C244   1.406       .  A
C239        C248   1.402       .  A
C244        C245   1.398       .  A
C244        F249   1.357       .  S
C245        C246   1.402       .  A
C245        H250   1.083       .  S
C246        C247   1.407       .  A
C247        C248   1.397       .  A
C247        F251   1.358       .  S
C248        H252   1.083       .  S
C253        C254   1.406       .  A
C253        C258   1.396       .  A
C253        H755   1.083       .  S
C254        C751   1.487       .  S
C254        C255   1.410       .  A
C255        C256   1.400       .  A
C255        F260   1.357       .  S
C256        C257   1.401       .  A
C256        H261   1.083       .  S
C257        C258   1.403       .  A
C258        F262   1.358       .  S
C259        C746   1.490   1_554  S
C259        C264   1.410       .  A
C259        C268   1.408       .  A
H263        C745   1.083   1_554  S
C264        C265   1.397       .  A
C264        F269   1.358   1_554  S
C265        C266   1.403       .  A
C265        H270   1.084       .  S
C266        C267   1.404       .  A
C267        C268   1.400       .  A
C267        F271   1.357       .  S
C268        H272   1.083       .  S
C273        C274   1.402       .  A
C273        C278   1.394       .  A
C273        H775   1.083   1_554  S
C274        C771   1.480   1_564  S
C274        C275   1.407       .  A
C275        C276   1.398       .  A
C275        F280   1.358   1_565  S
C276        C277   1.406       .  A
C276        H281   1.083       .  S
C277        C278   1.410       .  A
C278        F282   1.358       .  S
C279        C766   1.481   1_545  S
C279        C284   1.404       .  A
C279        C288   1.405       .  A
H283        C765   1.083       .  S
C284        C285   1.395       .  A
C284        F289   1.357       .  S
C285        C286   1.407       .  A
C285        H290   1.083       .  S
C286        C287   1.407       .  A
C287        C288   1.398       .  A
C287        F291   1.357       .  S
C288        H292   1.083   1_545  S
C293        C294   1.402       .  A
C293        C298   1.397       .  A
C293        H303   1.083   1_545  S
C294        C299   1.478   1_545  S
C294        C295   1.403       .  A
C295        C296   1.399       .  A
C295        F300   1.357       .  S
C296        C297   1.409       .  A
C296        H301   1.083       .  S
C297        C298   1.410       .  A
C298        F302   1.357       .  S
C299        C304   1.404       .  A
C299        C308   1.401       .  A
C304        C305   1.402       .  A
C304        F309   1.358       .  S
C305        C306   1.409       .  A
C305        H310   1.083       .  S
C306        C307   1.410       .  A
C307        C308   1.395       .  A
C307        F311   1.357       .  S
C308        H312   1.084   1_565  S
C313        C314   1.400       .  A
C313        C318   1.395       .  A
C313        H323   1.083       .  S
C314        C319   1.481   1_655  S
C314        C315   1.407       .  A
C315        C316   1.402       .  A
C315        F320   1.357   1_655  S
C316        C317   1.406       .  A
C316        H321   1.083       .  S
C317        C318   1.411       .  A
C318        F322   1.358       .  S
C319        C324   1.405       .  A
C319        C328   1.405       .  A
C324        C325   1.398       .  A
C324        F329   1.357       .  S
C325        C326   1.406       .  A
C325        H330   1.083       .  S
C326        C327   1.408       .  A
C327        C328   1.399       .  A
C327        F331   1.358       .  S
C328        H332   1.083   1_455  S
C333        C334   1.404       .  A
C333        C338   1.399       .  A
C333        H835   1.083   1_554  S
C334        C831   1.485   1_454  S
C334        C335   1.407       .  A
C335        C336   1.398       .  A
C335        F340   1.358   1_455  S
C336        C337   1.406       .  A
C336        H341   1.083       .  S
C337        C338   1.411       .  A
C338        F342   1.357       .  S
C339        C826   1.484   1_655  S
C339        C344   1.407       .  A
C339        C348   1.404       .  A
H343        C825   1.083       .  S
C344        C345   1.397       .  A
C344        F349   1.357       .  S
C345        C346   1.406       .  A
C345        H350   1.083       .  S
C346        C347   1.411       .  A
C347        C348   1.399       .  A
C347        F351   1.357       .  S
C348        H844   1.083       .  S
H352        C840   1.083   1_554  S
C353        C354   1.407       .  A
C353        C358   1.403       .  A
C353        H363   1.083       .  S
C354        C359   1.481       .  S
C354        C355   1.402       .  A
C355        C356   1.392       .  A
C355        F360   1.358       .  S
C356        C357   1.408       .  A
C356        H361   1.083       .  S
C357        C358   1.409       .  A
C358        F362   1.357       .  S
C359        C364   1.403       .  A
C359        C368   1.406       .  A
C364        C365   1.394       .  A
C364        F369   1.358       .  S
C365        C366   1.408       .  A
C365        H370   1.083       .  S
C366        C367   1.408       .  A
C367        C368   1.401       .  A
C367        F371   1.357       .  S
C368        H372   1.083       .  S
C373        C374   1.402       .  A
C373        C378   1.399       .  A
C373        H383   1.083       .  S
C374        C379   1.482   1_545  S
C374        C375   1.407       .  A
C375        C376   1.399       .  A
C375        F380   1.357   1_545  S
C376        C377   1.404       .  A
C376        H381   1.083       .  S
C377        C378   1.410       .  A
C378        F382   1.358       .  S
C379        C384   1.403       .  A
C379        C388   1.407       .  A
C384        C385   1.395       .  A
C384        F389   1.358       .  S
C385        C386   1.406       .  A
C385        H390   1.083       .  S
C386        C387   1.408       .  A
C387        C388   1.404       .  A
C387        F391   1.357       .  S
C388        H392   1.083   1_565  S
C393        C394   1.407       .  A
C393        C398   1.396       .  A
C393        H403   1.083   1_554  S
C394        C891   1.486   1_564  S
C394        C395   1.409       .  A
C395        C396   1.400       .  A
C395        F400   1.357   1_565  S
C396        C397   1.402       .  A
C396        H401   1.083       .  S
C397        C398   1.402       .  A
C398        F402   1.358       .  S
C399        C886   1.488   1_545  S
C399        C404   1.408       .  A
C399        C408   1.407       .  A
C404        C405   1.398       .  A
C404        F901   1.358       .  S
C405        C406   1.404       .  A
C405        H410   1.083       .  S
C406        C407   1.406       .  A
C407        C408   1.402       .  A
C407        F411   1.357       .  S
C408        H412   1.083       .  S
F409        C896   1.358   1_554  S
C413        C414   1.403       .  A
C413        C418   1.398       .  A
C413        H915   1.083       .  S
C414        C911   1.478   1_554  S
C414        C415   1.403       .  A
C415        C416   1.398       .  A
C415        F420   1.358   1_554  S
C416        C417   1.409       .  A
C416        H421   1.083       .  S
C417        C418   1.409       .  A
C418        F422   1.357       .  S
C419        C906   1.480       .  S
C419        C424   1.405       .  A
C419        C428   1.401       .  A
H423        C905   1.083       .  S
C424        C425   1.400       .  A
C424        F429   1.357       .  S
C425        C426   1.407       .  A
C425        H430   1.083       .  S
C426        C427   1.412       .  A
C427        C428   1.398       .  A
C427        F431   1.358       .  S
C428        H924   1.083       .  S
H432        C920   1.083   1_554  S
C433        C434   1.404       .  A
C433        C438   1.399       .  A
C433        H443   1.083       .  S
C434        C439   1.485       .  S
C434        C435   1.407       .  A
C435        C436   1.398       .  A
C435        F440   1.358       .  S
C436        C437   1.407       .  A
C436        H441   1.083       .  S
C437        C438   1.410       .  A
C438        F442   1.357       .  S
C439        C444   1.406       .  A
C439        C448   1.405       .  A
C444        C445   1.396       .  A
C444        F449   1.357       .  S
C445        C446   1.406       .  A
C445        H450   1.083       .  S
C446        C447   1.410       .  A
C447        C448   1.400       .  A
C447        F451   1.357       .  S
C448        H452   1.083       .  S
C453        C454   1.405       .  A
C453        C458   1.399       .  A
C453        H463   1.083       .  S
C454        C459   1.479       .  S
C454        C455   1.408       .  A
C455        C456   1.392       .  A
C455        F460   1.358       .  S
C456        C457   1.397       .  A
C456        H461   1.084       .  S
C457        C458   1.404       .  A
C458        F462   1.358       .  S
C459        C464   1.405       .  A
C459        C468   1.405       .  A
C464        C465   1.393       .  A
C464        F469   1.358       .  S
C465        C466   1.403       .  A
C465        H470   1.083       .  S
C466        C467   1.407       .  A
C467        C468   1.399       .  A
C467        F471   1.358       .  S
C468        H472   1.083       .  S
C473        C474   1.402       .  A
C473        C478   1.394       .  A
C473        H483   1.084       .  S
C474        C479   1.481       .  S
C474        C475   1.407       .  A
C475        C476   1.400       .  A
C475        F480   1.357       .  S
C476        C477   1.405       .  A
C476        H481   1.083       .  S
C477        C478   1.411       .  A
C478        F482   1.358       .  S
C479        C484   1.407       .  A
C479        C488   1.401       .  A
C484        C485   1.399       .  A
C484        F489   1.357       .  S
C485        C486   1.405       .  A
C485        H490   1.083       .  S
C486        C487   1.413       .  A
C487        C488   1.395       .  A
C487        F491   1.358       .  S
C488        H492   1.083       .  S
O493        C508   1.258       .  A
O493       Al501   1.894       .  S
C494        O504   1.260       .  A
C494        O495   1.263       .  A
C494        C938   1.483       .  S
O495       Al497   1.909       .  S
O496        C498   1.262       .  A
O496       Al497   1.906       .  S
Al497       O505   1.913       .  S
Al497       O507   1.919       .  S
Al497       O506   1.789       .  S
C498        O511   1.261       .  A
C498        C909   1.486       .  S
O499        C509   1.263       .  A
O499       Al501   1.909       .  S
O500        C513   1.259       .  A
O500       Al510   1.894       .  S
Al501       O514   1.896       .  S
Al501       O511   1.906       .  S
Al501       O506   1.786       .  S
O502        C509   1.260       .  A
O502       Al510   1.899       .  S
O503        C512   1.260       .  A
O503       Al510   1.900       .  S
O504       Al510   1.898       .  S
O505        C512   1.263       .  A
O506       Al510   1.788       .  S
O507        C508   1.263       .  A
C508        C889   1.470       .  S
C509        C969   1.481       .  S
C512        C878   1.482       .  S
C513        O514   1.258       .  A
C513        C949   1.461       .  S
O515        C530   1.261       .  A
O515       Al523   1.891       .  S
C516        O526   1.261       .  A
C516        O517   1.264       .  A
C516        C798   1.484       .  S
O517       Al519   1.913       .  S
O518        C520   1.259       .  A
O518       Al519   1.896       .  S
Al519       O527   1.896       .  S
Al519       O529   1.918       .  S
Al519       O528   1.782       .  S
C520        O533   1.260       .  A
C520        C769   1.482       .  S
O521        C531   1.261       .  A
O521       Al523   1.895       .  S
O522        C535   1.263       .  A
O522       Al532   1.911       .  S
Al523       O536   1.904       .  S
Al523       O533   1.906       .  S
Al523       O528   1.786       .  S
O524        C531   1.264       .  A
O524       Al532   1.913       .  S
O525        C534   1.262       .  A
O525       Al532   1.915       .  S
O526       Al532   1.896       .  S
O527        C534   1.259       .  A
O528       Al532   1.784       .  S
O529        C530   1.265       .  A
C530        C829   1.483       .  S
C531        C958   1.474       .  S
C534        C818   1.482       .  S
C535        O536   1.261       .  A
C535        C858   1.483       .  S
O537        C552   1.261       .  A
O537       Al545   1.903       .  S
C538        O548   1.261       .  A
C538        O539   1.264       .  A
C538        C758   1.473       .  S
O539       Al541   1.918       .  S
O540        C542   1.262       .  A
O540       Al541   1.904       .  S
Al541       O549   1.915       .  S
Al541       O551   1.918       .  S
Al541       O550   1.787       .  S
C542        O555   1.262       .  A
C542        C729   1.481       .  S
O543        C553   1.261       .  A
O543       Al545   1.907       .  S
O544        C557   1.263       .  A
O544       Al554   1.907       .  S
Al545       O558   1.909       .  S
Al545       O555   1.904       .  S
Al545       O550   1.781       .  S
O546        C553   1.258       .  A
O546       Al554   1.897       .  S
O547        C556   1.259       .  A
O547       Al554   1.893       .  S
O548       Al554   1.899       .  S
O549        C556   1.265       .  A
O550       Al554   1.782       .  S
O551        C552   1.263       .  A
C552        C709   1.477       .  S
C553        C978   1.482       .  S
C556        C689   1.484       .  S
C557        O558   1.264       .  A
C557        C849   1.485       .  S
O559        C574   1.259       .  A
O559       Al567   1.891       .  S
C560        O570   1.261       .  A
C560        O561   1.265       .  A
C560        C929   1.484       .  S
O561       Al563   1.919       .  S
O562        C564   1.260       .  A
O562       Al563   1.898       .  S
Al563       O571   1.910       .  S
Al563       O573   1.919       .  S
Al563       O572   1.788       .  S
C564        O577   1.260       .  A
C564        C918   1.485       .  S
O565        C575   1.260       .  A
O565       Al567   1.906       .  S
O566        C579   1.263       .  A
O566       Al576   1.901       .  S
Al567       O580   1.903       .  S
Al567       O577   1.904       .  S
Al567       O572   1.785       .  S
O568        C575   1.259       .  A
O568       Al576   1.904       .  S
O569        C578   1.259       .  A
O569       Al576   1.900       .  S
O570       Al576   1.893       .  S
O571        C578   1.262       .  A
O572       Al576   1.787       .  S
O573        C574   1.265       .  A
C574        C838   1.486       .  S
C575        C649   1.477       .  S
C578        C809   1.485       .  S
C579        O580   1.263       .  A
C579        C669   1.475       .  S
O581        C596   1.263       .  A
O581       Al589   1.909       .  S
C582        O592   1.261       .  A
C582        O583   1.264       .  A
C582        C898   1.478       .  S
O583       Al585   1.920       .  S
O584        C586   1.264       .  A
O584       Al585   1.911       .  S
Al585       O593   1.902       .  S
Al585       O595   1.921       .  S
Al585       O594   1.783       .  S
C586        O599   1.261       .  A
C586        C869   1.483       .  S
O587        C597   1.263       .  A
O587       Al589   1.905       .  S
O588        C601   1.261       .  A
O588       Al598   1.910       .  S
Al589       O602   1.905       .  S
Al589       O599   1.906       .  S
Al589       O594   1.780       .  S
O590        C597   1.263       .  A
O590       Al598   1.902       .  S
O591        C600   1.261       .  A
O591       Al598   1.901       .  S
O592       Al598   1.900       .  S
O593        C600   1.262       .  A
O594       Al598   1.780       .  S
O595        C596   1.264       .  A
C596        C718   1.477       .  S
C597        C638   1.480       .  S
C600        C698   1.479       .  S
C601        O602   1.260       .  A
C601        C678   1.472       .  S
O603        C618   1.259       .  A
O603       Al611   1.892       .  S
C604        O614   1.262       .  A
C604        O605   1.265       .  A
C604        C749   1.471       .  S
O605       Al607   1.921       .  S
O606        C608   1.261       .  A
O606       Al607   1.901       .  S
Al607       O615   1.899       .  S
Al607       O617   1.913       .  S
Al607       O616   1.786       .  S
C608        O621   1.260       .  A
C608        C738   1.473       .  S
O609        C619   1.260       .  A
O609       Al611   1.902       .  S
O610        C623   1.263       .  A
O610       Al620   1.904       .  S
Al611       O624   1.904       .  S
Al611       O621   1.899       .  S
Al611       O616   1.784       .  S
O612        C619   1.260       .  A
O612       Al620   1.903       .  S
O613        C622   1.260       .  A
O613       Al620   1.904       .  S
O614       Al620   1.900       .  S
O615        C622   1.260       .  A
O616       Al620   1.782       .  S
O617        C618   1.263       .  A
C618        C789   1.485       .  S
C619        C658   1.481       .  S
C622        C778   1.480       .  S
C623        O624   1.263       .  A
C623        C629   1.481       .  S
C625        C626   1.405       .  A
C625        C630   1.399       .  A
C625        H635   1.083       .  S
C626        C631   1.478       .  S
C626        C627   1.403       .  A
C627        C628   1.394       .  A
C627        F632   1.358       .  S
C628        C629   1.408       .  A
C628        H633   1.083       .  S
C629        C630   1.408       .  A
C630        F634   1.357       .  S
C631        C636   1.403       .  A
C631        C640   1.405       .  A
C636        C637   1.391       .  A
C636        F641   1.358       .  S
C637        C638   1.407       .  A
C637        H642   1.083       .  S
C638        C639   1.409       .  A
C639        C640   1.401       .  A
C639        F643   1.357       .  S
C640        H644   1.083       .  S
C645        C646   1.402       .  A
C645        C650   1.396       .  A
C645        H655   1.083       .  S
C646        C651   1.480       .  S
C646        C647   1.407       .  A
C647        C648   1.400       .  A
C647        F652   1.357       .  S
C648        C649   1.404       .  A
C648        H653   1.083       .  S
C649        C650   1.409       .  A
C650        F654   1.358       .  S
C651        C656   1.407       .  A
C651        C660   1.401       .  A
C656        C657   1.400       .  A
C656        F661   1.357       .  S
C657        C658   1.406       .  A
C657        H662   1.083       .  S
C658        C659   1.410       .  A
C659        C660   1.395       .  A
C659        F663   1.358       .  S
C660        H664   1.083       .  S
C665        C666   1.406       .  A
C665        C670   1.399       .  A
C665        H675   1.083       .  S
C666        C671   1.481       .  S
C666        C667   1.404       .  A
C667        C668   1.395       .  A
C667        F672   1.357       .  S
C668        C669   1.405       .  A
C668        H673   1.084       .  S
C669        C670   1.406       .  A
C670        F674   1.358       .  S
C671        C676   1.406       .  A
C671        C680   1.407       .  A
C676        C677   1.394       .  A
C676        F681   1.358       .  S
C677        C678   1.404       .  A
C677        H682   1.084       .  S
C678        C679   1.404       .  A
C679        C680   1.402       .  A
C679        F683   1.357       .  S
C680        H684   1.083       .  S
C685        C686   1.399       .  A
C685        C690   1.394       .  A
C686        C687   1.408       .  A
C687        C688   1.401       .  A
C687        F692   1.357   1_455  S
C688        C689   1.405       .  A
C688        H693   1.083       .  S
C689        C690   1.414       .  A
C690        F694   1.358       .  S
C691        C696   1.402       .  A
C691        C700   1.404       .  A
C696        C697   1.394       .  A
C696        F701   1.358   1_556  S
C697        C698   1.408       .  A
C697        H702   1.083       .  S
C698        C699   1.407       .  A
C699        C700   1.398       .  A
C699        F703   1.357       .  S
C705        C706   1.408       .  A
C705        C710   1.398       .  A
C705        H715   1.082       .  S
C706        C711   1.496   1_455  S
C706        C707   1.412       .  A
C707        C708   1.402       .  A
C707        F712   1.357   1_455  S
C708        C709   1.402       .  A
C708        H713   1.083       .  S
C709        C710   1.405       .  A
C710        F714   1.358       .  S
C711        C716   1.411       .  A
C711        C720   1.410       .  A
C716        C717   1.398       .  A
C716        F721   1.357       .  S
C717        C718   1.402       .  A
C717        H722   1.084       .  S
C718        C719   1.404       .  A
C719        C720   1.403       .  A
C719        F723   1.357       .  S
C720        H724   1.082       .  S
C725        C726   1.404       .  A
C725        C730   1.399       .  A
C725        H735   1.084       .  S
C726        C731   1.480       .  S
C726        C727   1.404       .  A
C727        C728   1.397       .  A
C727        F732   1.358       .  S
C728        C729   1.408       .  A
C728        H733   1.084       .  S
C729        C730   1.408       .  A
C730        F734   1.357       .  S
C731        C736   1.407       .  A
C731        C740   1.403       .  A
C736        C737   1.399       .  A
C736        F741   1.357       .  S
C737        C738   1.402       .  A
C737        H742   1.083       .  S
C738        C739   1.407       .  A
C739        C740   1.397       .  A
C739        F743   1.358       .  S
C740        H744   1.083       .  S
C745        C746   1.406       .  A
C745        C750   1.396       .  A
C746        C747   1.411       .  A
C747        C748   1.401       .  A
C747        F752   1.357       .  S
C748        C749   1.401       .  A
C748        H753   1.083       .  S
C749        C750   1.404       .  A
C750        F754   1.358       .  S
C751        C756   1.409       .  A
C751        C760   1.407       .  A
C756        C757   1.396       .  A
C756        F761   1.358       .  S
C757        C758   1.402       .  A
C757        H762   1.084       .  S
C758        C759   1.405       .  A
C759        C760   1.400       .  A
C759        F763   1.357       .  S
C760        H764   1.083       .  S
C765        C766   1.402       .  A
C765        C770   1.395       .  A
C766        C767   1.407       .  A
C767        C768   1.398       .  A
C767        F772   1.357   1_565  S
C768        C769   1.406       .  A
C768        H773   1.083       .  S
C769        C770   1.410       .  A
C770        F774   1.358       .  S
C771        C776   1.404       .  A
C771        C780   1.405       .  A
C776        C777   1.395       .  A
C776        F781   1.358   1_556  S
C777        C778   1.408       .  A
C777        H782   1.083       .  S
C778        C779   1.407       .  A
C779        C780   1.398       .  A
C779        F783   1.357       .  S
C780        H784   1.083   1_545  S
C785        C786   1.402       .  A
C785        C790   1.397       .  A
C785        H795   1.083   1_545  S
C786        C791   1.478   1_545  S
C786        C787   1.403       .  A
C787        C788   1.400       .  A
C787        F792   1.357       .  S
C788        C789   1.409       .  A
C788        H793   1.083       .  S
C789        C790   1.410       .  A
C790        F794   1.357       .  S
C791        C796   1.404       .  A
C791        C800   1.401       .  A
C796        C797   1.401       .  A
C796        F801   1.357       .  S
C797        C798   1.409       .  A
C797        H802   1.083       .  S
C798        C799   1.410       .  A
C799        C800   1.395       .  A
C799        F803   1.357       .  S
C800        H804   1.084   1_565  S
C805        C806   1.401       .  A
C805        C810   1.396       .  A
C805        H815   1.083       .  S
C806        C811   1.483   1_655  S
C806        C807   1.408       .  A
C807        C808   1.403       .  A
C807        F812   1.357   1_655  S
C808        C809   1.407       .  A
C808        H813   1.083       .  S
C809        C810   1.411       .  A
C810        F814   1.358       .  S
C811        C816   1.405       .  A
C811        C820   1.405       .  A
C816        C817   1.398       .  A
C816        F821   1.357       .  S
C817        C818   1.407       .  A
C817        H822   1.083       .  S
C818        C819   1.408       .  A
C819        C820   1.400       .  A
C819        F823   1.358       .  S
C820        H824   1.083   1_455  S
C825        C826   1.404       .  A
C825        C830   1.398       .  A
C826        C827   1.406       .  A
C827        C828   1.397       .  A
C827        F832   1.358   1_455  S
C828        C829   1.406       .  A
C828        H833   1.083       .  S
C829        C830   1.410       .  A
C830        F834   1.357       .  S
C831        C836   1.406       .  A
C831        C840   1.404       .  A
C836        C837   1.397       .  A
C836        F841   1.357       .  S
C837        C838   1.406       .  A
C837        H842   1.083       .  S
C838        C839   1.412       .  A
C839        C840   1.400       .  A
C839        F843   1.358       .  S
C845        C846   1.405       .  A
C845        C850   1.402       .  A
C845        H855   1.083       .  S
C846        C851   1.481       .  S
C846        C847   1.403       .  A
C847        C848   1.395       .  A
C847        F852   1.358       .  S
C848        C849   1.408       .  A
C848        H853   1.083       .  S
C849        C850   1.410       .  A
C850        F854   1.357       .  S
C851        C856   1.403       .  A
C851        C860   1.406       .  A
C856        C857   1.395       .  A
C856        F861   1.358       .  S
C857        C858   1.407       .  A
C857        H862   1.083       .  S
C858        C859   1.408       .  A
C859        C860   1.402       .  A
C859        F863   1.357       .  S
C860        H864   1.083       .  S
C865        C866   1.400       .  A
C865        C870   1.398       .  A
C865        H875   1.084       .  S
C866        C871   1.479   1_545  S
C866        C867   1.405       .  A
C867        C868   1.401       .  A
C867        F872   1.357   1_545  S
C868        C869   1.406       .  A
C868        H873   1.083       .  S
C869        C870   1.412       .  A
C870        F874   1.358       .  S
C871        C876   1.402       .  A
C871        C880   1.404       .  A
C876        C877   1.398       .  A
C876        F881   1.358       .  S
C877        C878   1.408       .  A
C877        H882   1.083       .  S
C878        C879   1.407       .  A
C879        C880   1.402       .  A
C879        F883   1.357       .  S
C880        H884   1.083       .  S
C885        C886   1.407       .  A
C885        C890   1.397       .  A
C885        H895   1.083       .  S
C886        C887   1.409       .  A
C887        C888   1.401       .  A
C887        F892   1.357   1_565  S
C888        C889   1.402       .  A
C888        H893   1.083       .  S
C889        C890   1.403       .  A
C890        F894   1.358       .  S
C891        C896   1.407       .  A
C891        C900   1.407       .  A
C896        C897   1.397       .  A
C897        C898   1.404       .  A
C897        H902   1.083       .  S
C898        C899   1.406       .  A
C899        C900   1.401       .  A
C899        F903   1.357       .  S
C900        H904   1.083       .  S
C905        C906   1.403       .  A
C905        C910   1.400       .  A
C906        C907   1.403       .  A
C907        C908   1.398       .  A
C907        F912   1.358       .  S
C908        C909   1.410       .  A
C908        H913   1.083       .  S
C909        C910   1.409       .  A
C910        F914   1.357       .  S
C911        C916   1.405       .  A
C911        C920   1.401       .  A
C916        C917   1.398       .  A
C916        F921   1.357       .  S
C917        C918   1.407       .  A
C917        H922   1.083       .  S
C918        C919   1.412       .  A
C919        C920   1.398       .  A
C919        F923   1.358       .  S
C925        C926   1.404       .  A
C925        C930   1.398       .  A
C925        H935   1.083       .  S
C926        C931   1.485       .  S
C926        C927   1.408       .  A
C927        C928   1.398       .  A
C927        F932   1.358       .  S
C928        C929   1.407       .  A
C928        H933   1.083       .  S
C929        C930   1.410       .  A
C930        F934   1.357       .  S
C931        C936   1.406       .  A
C931        C940   1.406       .  A
C936        C937   1.395       .  A
C936        F941   1.358       .  S
C937        C938   1.406       .  A
C937        H942   1.083       .  S
C938        C939   1.409       .  A
C939        C940   1.400       .  A
C939        F943   1.357       .  S
C940        H944   1.083       .  S
C945        C946   1.406       .  A
C945        C950   1.400       .  A
C945        H955   1.083       .  S
C946        C951   1.482       .  S
C946        C947   1.409       .  A
C947        C948   1.392       .  A
C947        F952   1.357       .  S
C948        C949   1.397       .  A
C948        H953   1.084       .  S
C949        C950   1.405       .  A
C950        F954   1.358       .  S
C951        C956   1.406       .  A
C951        C960   1.406       .  A
C956        C957   1.394       .  A
C956        F961   1.358       .  S
C957        C958   1.403       .  A
C957        H962   1.083       .  S
C958        C959   1.407       .  A
C959        C960   1.400       .  A
C959        F963   1.358       .  S
C960        H964   1.083       .  S
C965        C966   1.402       .  A
C965        C970   1.394       .  A
C965        H975   1.084       .  S
C966        C971   1.481       .  S
C966        C967   1.407       .  A
C967        C968   1.401       .  A
C967        F972   1.357       .  S
C968        C969   1.405       .  A
C968        H973   1.083       .  S
C969        C970   1.411       .  A
C970        F974   1.358       .  S
C971        C976   1.407       .  A
C971        C980   1.401       .  A
C976        C977   1.399       .  A
C976        F981   1.357       .  S
C977        C978   1.405       .  A
C977        H982   1.083       .  S
C978        C979   1.412       .  A
C979        C980   1.395       .  A
C979        F983   1.358       .  S
C980        H984   1.083       .  S
