geometry optimzed in LAMMPS
_audit_creation_date              2020-11-30 
_audit_creation_method            'lammps2cif' 
_symmetry_space_group_name_H-M    'P1' 
_symmetry_Int_Tables_number       1 
_symmetry_cell_setting            triclinic 
loop_ 
_symmetry_equiv_pos_as_xyz 
  x,y,z 
_cell_length_a                    57.42135218 
_cell_length_b                    57.79469799444922 
_cell_length_c                    34.63661598080614 
_cell_angle_alpha                 90.22802342059677 
_cell_angle_beta                  89.53904729796541 
_cell_angle_gamma                 120.37466728687986 
loop_ 
_atom_site_label 
_atom_site_type_symbol 
_atom_site_fract_x 
_atom_site_fract_y 
_atom_site_fract_z 
_atom_site_charge 
Zn1        Zn  0.87584246  0.34849258  0.12634171     1.49700
Zn2        Zn  0.85677556  0.37349189  0.19207777     1.49400
Zn3        Zn  0.81998350  0.34622237  0.11993658     1.49100
Zn4        Zn  0.82601103  0.30895916  0.18218628     1.49500
O5          O  0.84461993  0.34404022  0.15549085    -1.83500
O6          O  0.91128976  0.37680895  0.14984683    -0.74200
O7          O  0.84259234  0.39851028  0.17989655    -0.74000
O8          O  0.83048229  0.34472951  0.06545763    -0.73500
O9          O  0.89737560  0.39430023  0.19536846    -0.74200
O10         O  0.87270674  0.35336085  0.06885172    -0.73800
O11         O  0.81816966  0.37971707  0.12766311    -0.74400
O12         O  0.78570585  0.28937617  0.17080157    -0.73700
O13         O  0.84460520  0.35854993  0.24516195    -0.74500
O14         O  0.78244328  0.31586769  0.12782375    -0.73900
O15         O  0.82938193  0.31484508  0.24062860    -0.74400
O16         O  0.84138283  0.28529828  0.16445349    -0.74300
O17         O  0.87630659  0.31448105  0.12880838    -0.74100
C18         C  0.91625632  0.39293862  0.17795898     0.77700
C19         C  0.82740055  0.39818126  0.15297975     0.78200
C20         C  0.85213347  0.34882788  0.04912790     0.77200
C21         C  0.77151408  0.29507862  0.14896818     0.77600
C22         C  0.83581914  0.33570838  0.26092596     0.78700
C23         C  0.86192935  0.29121298  0.14317130     0.77700
Zn24       Zn  0.80883704  0.33209082  0.62787194     1.49700
Zn25       Zn  0.84983452  0.36202655  0.69585104     1.49400
Zn26       Zn  0.82355955  0.29806505  0.68407999     1.49100
Zn27       Zn  0.86800705  0.34153056  0.62491110     1.49500
O28         O  0.83737989  0.33309622  0.65847016    -1.83500
O29         O  0.80385611  0.36313893  0.64144957    -0.74200
O30         O  0.84306046  0.34680671  0.74863403    -0.74000
O31         O  0.78215290  0.27593295  0.68140991    -0.73500
O32         O  0.83210363  0.38434324  0.68960867    -0.74200
O33         O  0.77294616  0.29897797  0.63927199    -0.73800
O34         O  0.83311147  0.30437177  0.74127835    -0.74400
O35         O  0.87006119  0.30852237  0.61873539    -0.73700
O36         O  0.89017125  0.38536690  0.69581876    -0.74500
O37         O  0.83990045  0.27728083  0.65790351    -0.73900
O38         O  0.90407900  0.36968615  0.64814408    -0.74400
O39         O  0.86187960  0.34959947  0.57022040    -0.74300
O40         O  0.81777890  0.33404537  0.57114875    -0.74100
C41         C  0.81387928  0.38186794  0.66643355     0.77700
C42         C  0.83917916  0.32477842  0.76244606     0.78200
C43         C  0.76513518  0.27910129  0.66204495     0.77200
C44         C  0.85836258  0.28477241  0.63206408     0.77600
C45         C  0.90921286  0.38505197  0.67726156     0.78700
C46         C  0.83989650  0.34258983  0.55252440     0.77700
Zn47       Zn  0.51682939  0.14754151  0.19819403     1.49700
Zn48       Zn  0.51802582  0.17914434  0.12311686     1.49400
Zn49       Zn  0.46904695  0.12038239  0.13866811     1.49100
Zn50       Zn  0.47658900  0.17031423  0.19069272     1.49500
O51         O  0.49498001  0.15431878  0.16271131    -1.83500
O52         O  0.55632977  0.16762555  0.18339801    -0.74200
O53         O  0.50494050  0.16402659  0.07010380    -0.74000
O54         O  0.46732424  0.08824135  0.16608994    -0.73500
O55         O  0.55625147  0.18731261  0.12855512    -0.74200
O56         O  0.50294702  0.10800017  0.20457531    -0.73800
O57         O  0.47577627  0.12076015  0.08089926    -0.74400
O58         O  0.43775986  0.15338128  0.17073768    -0.73700
O59         O  0.52079695  0.21513421  0.12927049    -0.74500
O60         O  0.43256177  0.11690208  0.14078872    -0.73900
O61         O  0.49616770  0.21106743  0.18116600    -0.74400
O62         O  0.47749638  0.16409353  0.24901753    -0.74300
O63         O  0.51255664  0.15789513  0.25142617    -0.74100
C64         C  0.56876054  0.18241893  0.15444235     0.77700
C65         C  0.48887468  0.14040355  0.05780459     0.78200
C66         C  0.48235036  0.08692680  0.19194135     0.77200
C67         C  0.42327675  0.13171790  0.15185805     0.77600
C68         C  0.51294996  0.22557858  0.15489360     0.78700
C69         C  0.49460730  0.16102935  0.26841077     0.77700
Zn70       Zn  0.51237317  0.18238309  0.70432331     1.49700
Zn71       Zn  0.50660342  0.14063473  0.63975752     1.49400
Zn72       Zn  0.45490414  0.13154315  0.69111469     1.49100
Zn73       Zn  0.47957509  0.17725072  0.62812271     1.49500
O74         O  0.48837246  0.15776743  0.66549509    -1.83500
O75         O  0.54982432  0.18805032  0.69925016    -0.74200
O76         O  0.48953743  0.10172561  0.65880758    -0.74000
O77         O  0.45596750  0.13728812  0.74916131    -0.73500
O78         O  0.54731173  0.16091735  0.65223478    -0.74200
O79         O  0.49851183  0.16961090  0.75791501    -0.73800
O80         O  0.45219146  0.09599234  0.68766336    -0.74400
O81         O  0.43921812  0.16169588  0.62359313    -0.73700
O82         O  0.50270457  0.14187148  0.58094806    -0.74500
O83         O  0.42139834  0.12879260  0.66645737    -0.73900
O84         O  0.49112536  0.17311506  0.57509418    -0.74400
O85         O  0.49767231  0.21658182  0.64128119    -0.74300
O86         O  0.51699716  0.21870106  0.69731082    -0.74100
C87         C  0.56122118  0.17920959  0.67692574     0.77700
C88         C  0.46728083  0.08697142  0.67675119     0.78200
C89         C  0.47560063  0.15208546  0.77132269     0.77200
C90         C  0.41860808  0.14217200  0.63946158     0.77600
C91         C  0.49772005  0.15706987  0.56012525     0.78700
C92         C  0.51145740  0.22994234  0.67027623     0.77700
Zn93       Zn  0.65278875  0.52503276  0.13895095     1.49700
Zn94       Zn  0.66208519  0.47601281  0.13338423     1.49400
Zn95       Zn  0.69683927  0.52318535  0.19308355     1.49100
Zn96       Zn  0.63248475  0.48201210  0.20524537     1.49500
O97         O  0.66134307  0.50169952  0.16810949    -1.83500
O98         O  0.64458847  0.51340040  0.08307918    -0.74200
O99         O  0.69489657  0.47328891  0.14273426    -0.74000
O100        O  0.71797408  0.56133765  0.16928220    -0.73500
O101        O  0.66312234  0.48781136  0.07913113    -0.74200
O102        O  0.68592822  0.56099468  0.13369008    -0.73800
O103        O  0.71944394  0.50521361  0.18512400    -0.74400
O104        O  0.64875063  0.48821781  0.25731870    -0.73700
O105        O  0.62978047  0.43875040  0.14025490    -0.74500
O106        O  0.69028595  0.52373031  0.25125911    -0.73900
O107        O  0.60992850  0.44171822  0.19373119    -0.74400
O108        O  0.60890751  0.49862051  0.21089320    -0.74300
O109        O  0.62441393  0.53044080  0.16642878    -0.74100
C110        C  0.65418268  0.50152941  0.06306945     0.77700
C111        C  0.71556676  0.48538279  0.16410871     0.78200
C112        C  0.71019336  0.57284228  0.14541109     0.77200
C113        C  0.67031085  0.50707088  0.27208240     0.77600
C114        C  0.61134381  0.42789726  0.16591402     0.78700
C115        C  0.60906270  0.51861638  0.19537213     0.77700
Zn116      Zn  0.63578936  0.48483215  0.70369431     1.49700
Zn117      Zn  0.66625301  0.47875172  0.63180396     1.49400
Zn118      Zn  0.65782620  0.52863591  0.63869580     1.49100
Zn119      Zn  0.69934693  0.52321137  0.69544908     1.49500
O120        O  0.66503543  0.50405213  0.66742712    -1.83500
O121        O  0.61522658  0.44533677  0.69336060    -0.74200
O122        O  0.66510351  0.48881775  0.57692141    -0.74000
O123        O  0.62674045  0.53167648  0.66162025    -0.73500
O124        O  0.63520503  0.44156778  0.64074714    -0.74200
O125        O  0.61045783  0.49913597  0.70491078    -0.73800
O126        O  0.65239990  0.51920836  0.58192287    -0.74400
O127        O  0.72131082  0.56103464  0.67442692    -0.73700
O128        O  0.69958046  0.47659845  0.63972186    -0.74500
O129        O  0.69097848  0.56483571  0.63935827    -0.73900
O130        O  0.72142585  0.50496030  0.68744306    -0.74400
O131        O  0.69253392  0.52373379  0.75335026    -0.74300
O132        O  0.64982371  0.49106467  0.75706960    -0.74100
C133        C  0.61706530  0.43107860  0.66683897     0.77700
C134        C  0.65848078  0.50460190  0.56150861     0.78200
C135        C  0.60978110  0.51832619  0.68829165     0.77200
C136        C  0.71467547  0.57448225  0.65268685     0.77600
C137        C  0.71915322  0.48725363  0.66324016     0.78700
C138        C  0.67160726  0.50822139  0.77330857     0.77700
Zn139      Zn  0.33870315  0.81182769  0.30513659     1.49700
Zn140      Zn  0.36772279  0.85775336  0.37037644     1.49400
Zn141      Zn  0.32696496  0.85912285  0.30930810     1.49100
Zn142      Zn  0.30327113  0.81454206  0.37322215     1.49500
O143        O  0.33447038  0.83580282  0.33996919    -1.83500
O144        O  0.37407876  0.81428433  0.31497120    -0.74200
O145        O  0.38830346  0.89714648  0.35110560    -0.74000
O146        O  0.32300177  0.84998326  0.25328287    -0.73500
O147        O  0.39355808  0.84346147  0.36285673    -0.74200
O148        O  0.33761275  0.82104688  0.24942886    -0.73800
O149        O  0.35854448  0.89583498  0.30973872    -0.74400
O150        O  0.27650122  0.82744670  0.37117630    -0.73700
O151        O  0.35753546  0.85467362  0.42799090    -0.74500
O152        O  0.29503629  0.86077433  0.32901510    -0.73900
O153        O  0.31518549  0.82079683  0.42811555    -0.74400
O154        O  0.28473178  0.77465888  0.36134025    -0.74300
O155        O  0.30968714  0.77334428  0.31338439    -0.74100
C156        C  0.39348049  0.82683071  0.33841232     0.77700
C157        C  0.38149992  0.90856668  0.32569940     0.78200
C158        C  0.33014051  0.83601881  0.23351989     0.77200
C159        C  0.27672801  0.84688936  0.35371212     0.77600
C160        C  0.33607297  0.83802192  0.44622825     0.78700
C161        C  0.28976126  0.76137620  0.33658636     0.77700
Zn162      Zn  0.34964095  0.87436525  0.86919475     1.49700
Zn163      Zn  0.34234577  0.81626339  0.87647378     1.49400
Zn164      Zn  0.30382510  0.82551877  0.81906983     1.49100
Zn165      Zn  0.36732512  0.85021571  0.80164535     1.49500
O166        O  0.34035093  0.84139217  0.84158129    -1.83500
O167        O  0.35743437  0.87194407  0.92522613    -0.74200
O168        O  0.30954531  0.77934079  0.86984869    -0.74000
O169        O  0.28375820  0.84435653  0.84080246    -0.73500
O170        O  0.34424412  0.82863018  0.93115544    -0.74200
O171        O  0.31714372  0.87809823  0.87221545    -0.73800
O172        O  0.28227098  0.78511865  0.83119180    -0.74400
O173        O  0.34946224  0.83753366  0.75113953    -0.73700
O174        O  0.37545885  0.81312756  0.86619779    -0.74500
O175        O  0.30735922  0.82877637  0.75986624    -0.73900
O176        O  0.39169058  0.83506354  0.81105329    -0.74400
O177        O  0.38993103  0.88985913  0.79435250    -0.74300
O178        O  0.37893424  0.90796484  0.84214187    -0.74100
C179        C  0.35143252  0.85147285  0.94595404     0.77700
C180        C  0.28750558  0.76976546  0.85115124     0.78200
C181        C  0.29263799  0.86549086  0.86156034     0.77200
C182        C  0.32670247  0.83206707  0.73763943     0.77600
C183        C  0.39260558  0.82106237  0.83863510     0.78700
C184        C  0.39237988  0.91043968  0.81137056     0.77700
Zn185      Zn  0.13038025  0.46064743  0.36583327     1.49700
Zn186      Zn  0.15265242  0.50473899  0.30091534     1.49400
Zn187      Zn  0.19006097  0.50972033  0.37009415     1.49100
Zn188      Zn  0.17632633  0.46489795  0.30590471     1.49500
O189        O  0.16239508  0.48475950  0.33545855    -1.83500
O190        O  0.09598192  0.45776406  0.34415473    -0.74200
O191        O  0.17406653  0.54467386  0.31027797    -0.74000
O192        O  0.18001876  0.49796670  0.42517013    -0.73500
O193        O  0.11308040  0.49183958  0.30333910    -0.74200
O194        O  0.13576401  0.46929967  0.42343225    -0.73800
O195        O  0.19721030  0.54744694  0.36280225    -0.74400
O196        O  0.21754450  0.48356587  0.31048904    -0.73700
O197        O  0.15703394  0.49648429  0.24636755    -0.74500
O198        O  0.22536539  0.51211271  0.35854099    -0.73900
O199        O  0.16710681  0.46402204  0.24858346    -0.74400
O200        O  0.15928768  0.42657611  0.32731089    -0.74300
O201        O  0.12579595  0.42419764  0.36327950    -0.74100
C202        C  0.09273393  0.47187562  0.31892317     0.77700
C203        C  0.19052990  0.55851529  0.33680485     0.78200
C204        C  0.15771958  0.48250832  0.44220631     0.77200
C205        C  0.23377758  0.50176713  0.33361617     0.77600
C206        C  0.16044702  0.47874446  0.22974574     0.78700
C207        C  0.13872035  0.41354639  0.34932753     0.77700
Zn208      Zn  0.12693166  0.46866507  0.86589339     1.49700
Zn209      Zn  0.17531935  0.47331606  0.81250691     1.49400
Zn210      Zn  0.15072371  0.51233580  0.79900073     1.49100
Zn211      Zn  0.18547670  0.51982035  0.87218182     1.49500
O212        O  0.15961112  0.49334551  0.83707600    -1.83500
O213        O  0.12365926  0.43247766  0.86809654    -0.74200
O214        O  0.17084800  0.47344528  0.75380365    -0.74000
O215        O  0.11029185  0.49511457  0.79462640    -0.73500
O216        O  0.15792177  0.43490047  0.83439934    -0.74200
O217        O  0.09292269  0.46393983  0.84011131    -0.73800
O218        O  0.16168696  0.50630100  0.74654235    -0.74400
O219        O  0.19039428  0.55657295  0.86401984    -0.73700
O220        O  0.21573570  0.49175313  0.82335725    -0.74500
O221        O  0.16802803  0.55271005  0.81029970    -0.73900
O222        O  0.22177082  0.52346482  0.86492436    -0.74400
O223        O  0.17371525  0.50879522  0.92669900    -0.74300
O224        O  0.12993948  0.47907763  0.92250447    -0.74100
C225        C  0.13713611  0.42190102  0.85602852     0.77700
C226        C  0.16711411  0.48920536  0.73225040     0.78200
C227        C  0.08988659  0.47586790  0.81129211     0.77200
C228        C  0.18314041  0.56701854  0.83788534     0.77600
C229        C  0.23112983  0.51138249  0.84519026     0.78700
C230        C  0.15097457  0.49350219  0.94263557     0.77700
Zn231      Zn  0.48153089  0.67090571  0.30412039     1.49700
Zn232      Zn  0.54030201  0.67973341  0.31004741     1.49400
Zn233      Zn  0.51621384  0.69791782  0.37784294     1.49100
Zn234      Zn  0.49178550  0.63468598  0.36279653     1.49500
O235        O  0.50742928  0.67052836  0.33900296    -1.83500
O236        O  0.49234958  0.66887305  0.24956167    -0.74200
O237        O  0.57387190  0.71021866  0.33518112    -0.74000
O238        O  0.50074493  0.72158014  0.36608717    -0.73500
O239        O  0.53652590  0.68469406  0.25284459    -0.74200
O240        O  0.47823565  0.70385204  0.31184620    -0.73800
O241        O  0.55616697  0.72139009  0.38389146    -0.74400
O242        O  0.49444246  0.63864673  0.42166223    -0.73700
O243        O  0.54532846  0.64807144  0.30941765    -0.74500
O244        O  0.50327764  0.68055459  0.42921854    -0.73900
O245        O  0.51099064  0.61515282  0.34162689    -0.74400
O246        O  0.45128997  0.61232284  0.35164018    -0.74300
O247        O  0.44468623  0.63907963  0.31334517    -0.74100
C248        C  0.51493577  0.67586116  0.23327177     0.77700
C249        C  0.57658521  0.72400190  0.36547490     0.78200
C250        C  0.48634526  0.72157631  0.33834733     0.77200
C251        C  0.49713517  0.65784465  0.44326629     0.77600
C252        C  0.53246674  0.62393131  0.32112563     0.78700
C253        C  0.43550537  0.61744113  0.33249845     0.77700
Zn254      Zn  0.53614892  0.66879934  0.80574005     1.49700
Zn255      Zn  0.49072072  0.62785083  0.86609807     1.49400
Zn256      Zn  0.51793680  0.69223404  0.87472158     1.49100
Zn257      Zn  0.47833660  0.66177707  0.80623347     1.49500
O258        O  0.50574417  0.66245375  0.83868768    -1.83500
O259        O  0.53713852  0.63492707  0.80198973    -0.74200
O260        O  0.49836659  0.63494927  0.92399569    -0.74000
O261        O  0.55867709  0.71422422  0.87577587    -0.73500
O262        O  0.50624747  0.60564069  0.84290943    -0.74200
O263        O  0.57189473  0.69705172  0.82890389    -0.73800
O264        O  0.50870526  0.67754359  0.92846012    -0.74400
O265        O  0.47446242  0.69407707  0.81472827    -0.73700
O266        O  0.44966652  0.60565841  0.85962364    -0.74500
O267        O  0.50146876  0.71575041  0.86391012    -0.73900
O268        O  0.44239113  0.62984129  0.81741354    -0.74400
O269        O  0.48654281  0.65914610  0.75089953    -0.74300
O270        O  0.53075728  0.67490104  0.74949277    -0.74100
C271        C  0.52432507  0.61169034  0.81690269     0.77700
C272        C  0.50374370  0.65559827  0.94424611     0.78200
C273        C  0.57732818  0.71288434  0.85755337     0.77200
C274        C  0.48405123  0.71323053  0.83902295     0.77600
C275        C  0.43353202  0.60921008  0.83878443     0.78700
C276        C  0.50819346  0.66573171  0.73231186     0.77700
Zn277      Zn  0.15040932  0.00769699  0.95439122     1.49700
Zn278      Zn  0.21004221  0.01825397  0.95865329     1.49400
Zn279      Zn  0.18713991  0.03760470  0.02634628     1.49100
Zn280      Zn  0.16390848  0.97452247  0.01451304     1.49500
O281        O  0.17772223  0.00933214  0.98866961    -1.83500
O282        O  0.16249656  0.00928443  0.89930533    -0.74200
O283        O  0.24412517  0.04713369  0.98490902    -0.74000
O284        O  0.16940614  0.05950018  0.01526300    -0.73500
O285        O  0.20691610  0.02678874  0.90322351    -0.74200
O286        O  0.14318445  0.03781723  0.96524668    -0.73800
O287        O  0.22740820  0.06132407  0.03097411    -0.74400
O288        O  0.16874379  0.98000877  0.07278967    -0.73700
O289        O  0.21295098  0.98531118  0.95311373    -0.74500
O290        O  0.17592681  0.02142989  0.07888386    -0.73900
O291        O  0.18221325  0.95460801  0.99263344    -0.74400
O292        O  0.12342583  0.95115834  0.00573924    -0.74300
O293        O  0.11469003  0.97383326  0.96256086    -0.74100
C294        C  0.18556129  0.01823493  0.88327676     0.77700
C295        C  0.24753502  0.06217547  0.01397165     0.78200
C296        C  0.15186047  0.05645188  0.99036037     0.77200
C297        C  0.17154941  0.99946189  0.09379553     0.77600
C298        C  0.20097402  0.96181264  0.96739940     0.78700
C299        C  0.10671704  0.95357334  0.98458370     0.77700
Zn300      Zn  0.14534590  0.99368995  0.52791808     1.49700
Zn301      Zn  0.18849275  0.02874188  0.46369780     1.49400
Zn302      Zn  0.19732474  0.98864859  0.51790678     1.49100
Zn303      Zn  0.15096636  0.96410014  0.45563586     1.49500
O304        O  0.17073899  0.99400484  0.49084333    -1.83500
O305        O  0.13869935  0.02396019  0.51890773    -0.74200
O306        O  0.22761990  0.05211643  0.48299430    -0.74000
O307        O  0.19038509  0.98474822  0.57560299    -0.73500
O308        O  0.16840226  0.04913354  0.47382296    -0.74200
O309        O  0.15915885  0.99643012  0.58116444    -0.73800
O310        O  0.23350209  0.02197849  0.51453303    -0.74400
O311        O  0.16720332  0.94036372  0.45309222    -0.73700
O312        O  0.18638411  0.02141615  0.40542645    -0.74500
O313        O  0.20046020  0.95796174  0.49528982    -0.73900
O314        O  0.15503313  0.97822681  0.40197413    -0.74400
O315        O  0.11132617  0.94134430  0.46994826    -0.74300
O316        O  0.10900733  0.96063402  0.52391827    -0.74100
C317        C  0.14871519  0.04407795  0.49640295     0.77700
C318        C  0.24239632  0.04577726  0.50249815     0.78200
C319        C  0.17624761  0.99139504  0.59627237     0.77200
C320        C  0.18717885  0.94068484  0.46932960     0.77600
C321        C  0.17092796  0.00052903  0.38558920     0.78700
C322        C  0.09784577  0.94226505  0.49875057     0.77700
Zn323      Zn  0.99891151  0.14970515  0.96874093     1.49700
Zn324      Zn  0.96888832  0.15632199  0.03965431     1.49400
Zn325      Zn  0.03387003  0.19367151  0.03335652     1.49100
Zn326      Zn  0.99418443  0.20205000  0.97713225     1.49500
O327        O  0.99934544  0.17565452  0.00485677    -1.83500
O328        O  0.96793367  0.11239652  0.97819297    -0.74200
O329        O  0.98243635  0.16069023  0.09301831    -0.74000
O330        O  0.05522521  0.17479837  0.02219147    -0.73500
O331        O  0.94639854  0.11670031  0.02831381    -0.74200
O332        O  0.03223775  0.14735085  0.97416585    -0.73800
O333        O  0.02612918  0.19109361  0.09214608    -0.74400
O334        O  0.02869692  0.23720539  0.97645220    -0.73700
O335        O  0.94524272  0.17248586  0.04166499    -0.74500
O336        O  0.05758301  0.23257477  0.01358932    -0.73900
O337        O  0.96475127  0.20711919  0.00168542    -0.74400
O338        O  0.98765542  0.19305592  0.92047116    -0.74300
O339        O  0.99637141  0.15976707  0.91447293    -0.74100
C340        C  0.94882109  0.10212508  0.00279795     0.77700
C341        C  0.00436503  0.17559636  0.11076066     0.78200
C342        C  0.05232085  0.15746530  0.99680272     0.77200
C343        C  0.05214178  0.24633826  0.99040404     0.77600
C344        C  0.94675976  0.19333548  0.02694501     0.78700
C345        C  0.99123528  0.17682634  0.89979668     0.77700
Zn346      Zn  0.99694129  0.14045113  0.54328858     1.49700
Zn347      Zn  0.96203552  0.15125028  0.48036346     1.49400
Zn348      Zn  0.00415674  0.19834256  0.53467899     1.49100
Zn349      Zn  0.02567541  0.17550683  0.46984630     1.49500
O350        O  0.99688384  0.16609172  0.50707377    -1.83500
O351        O  0.96311734  0.10443833  0.53616178    -0.74200
O352        O  0.94046779  0.16850867  0.49973650    -0.74000
O353        O  0.01288479  0.19679848  0.59017302    -0.73500
O354        O  0.93975654  0.11134433  0.49153649    -0.74200
O355        O  0.99880922  0.15347745  0.59809692    -0.73800
O356        O  0.97046021  0.20027053  0.53832818    -0.74400
O357        O  0.04962823  0.21526470  0.46585183    -0.73700
O358        O  0.96812918  0.15606172  0.42192891    -0.74500
O359        O  0.03294587  0.23200853  0.50797355    -0.73900
O360        O  0.01056872  0.16520292  0.41699193    -0.74400
O361        O  0.04826866  0.15873216  0.48113394    -0.74300
O362        O  0.02892024  0.13505709  0.53401296    -0.74100
C363        C  0.94261257  0.09564005  0.51420516     0.77700
C364        C  0.94700783  0.18758478  0.52377146     0.78200
C365        C  0.00651673  0.17672794  0.61191993     0.77200
C366        C  0.04945509  0.23529991  0.48085889     0.77600
C367        C  0.98852912  0.16031563  0.40147059     0.78700
C368        C  0.04721661  0.14325240  0.50799590     0.77700
Zn369      Zn  0.85774125  0.85453733  0.04508249     1.49700
Zn370      Zn  0.84683128  0.80896175  0.98349735     1.49400
Zn371      Zn  0.79925978  0.80620420  0.03715276     1.49100
Zn372      Zn  0.82355119  0.84862361  0.97127109     1.49500
O373        O  0.83205074  0.82941595  0.00886048    -1.83500
O374        O  0.89449442  0.85978845  0.03429274    -0.74200
O375        O  0.82881298  0.77037641  0.00703215    -0.74000
O376        O  0.80135812  0.81706337  0.09320907    -0.73500
O377        O  0.88805628  0.82874198  0.99123149    -0.74200
O378        O  0.84587595  0.84221609  0.09974313    -0.73800
O379        O  0.79648199  0.77092432  0.04160467    -0.74400
O380        O  0.78322133  0.83012529  0.96255445    -0.73700
O381        O  0.84133401  0.80950447  0.92474950    -0.74500
O382        O  0.76551929  0.79987893  0.00913975    -0.73900
O383        O  0.83834756  0.84643541  0.91999112    -0.74400
O384        O  0.83889700  0.88768492  0.98591540    -0.74300
O385        O  0.86161584  0.89076462  0.03883933    -0.74100
C386        C  0.90391667  0.84892232  0.01200812     0.77700
C387        C  0.80868094  0.75888575  0.03036491     0.78200
C388        C  0.82229249  0.82871977  0.11441745     0.77200
C389        C  0.76276935  0.81055773  0.97864125     0.77600
C390        C  0.84116372  0.82795679  0.90456481     0.78700
C391        C  0.85398737  0.90149338  0.01379683     0.77700
Zn392      Zn  0.79491445  0.79129021  0.48223420     1.49700
Zn393      Zn  0.80631039  0.84008796  0.53963865     1.49400
Zn394      Zn  0.84286745  0.81296287  0.54117860     1.49100
Zn395      Zn  0.84689971  0.84823819  0.46954234     1.49500
O396        O  0.82258885  0.82327948  0.50822253    -1.83500
O397        O  0.75999323  0.79036632  0.48657239    -0.74200
O398        O  0.81067446  0.83597226  0.59796375    -0.74000
O399        O  0.82668763  0.77326586  0.54288797    -0.73500
O400        O  0.76689554  0.82498569  0.52342198    -0.74200
O401        O  0.79063358  0.75743527  0.50583104    -0.73800
O402        O  0.84110829  0.82313110  0.59550757    -0.74400
O403        O  0.88444523  0.85443807  0.47529308    -0.73700
O404        O  0.82618528  0.88011272  0.52894982    -0.74500
O405        O  0.88185640  0.83012282  0.52589168    -0.73900
O406        O  0.85061825  0.88447134  0.47674286    -0.74400
O407        O  0.83479070  0.83432729  0.41565820    -0.74300
O408        O  0.80152413  0.79227428  0.42459073    -0.74100
C409        C  0.75179278  0.80499576  0.50190158     0.77700
C410        C  0.82726505  0.83074202  0.61474384     0.78200
C411        C  0.80528422  0.75359102  0.52930411     0.77200
C412        C  0.89559961  0.84641868  0.49903810     0.77600
C413        C  0.84277189  0.89471515  0.50265312     0.78700
C414        C  0.81722764  0.81152935  0.40241821     0.77700
C415        C  0.84265720  0.82770753  0.86195868    -0.11400
C416        C  0.85869728  0.85160215  0.84102097     0.04100
C417        C  0.85567981  0.85208729  0.80103644    -0.11900
C418        C  0.83687804  0.82899637  0.78116240     0.19000
C419        C  0.82213767  0.80468804  0.80167682    -0.08900
C420        C  0.82499808  0.80422683  0.84180298    -0.01900
H421        H  0.86786856  0.87063762  0.78540718     0.05500
C422        C  0.83417835  0.83054166  0.73879137     0.20900
H423        H  0.81265787  0.78571891  0.85743639     0.10700
C424        C  0.85628134  0.83619221  0.71511107    -0.15300
C425        C  0.85481050  0.83753781  0.67499925     0.03700
C426        C  0.83051105  0.83273117  0.65745657    -0.10600
C427        C  0.80875769  0.82834796  0.68143722    -0.00600
C428        C  0.81051881  0.82744521  0.72178551    -0.05800
H429        H  0.87486479  0.83953316  0.72798619     0.06700
H430        H  0.79016195  0.82512611  0.66881512     0.10100
Br431      Br  0.79825395  0.77156746  0.77611768    -0.05500
Br432      Br  0.88557617  0.88395057  0.86554885    -0.02400
Br433      Br  0.88743508  0.84736462  0.64653650     0.00400
Br434      Br  0.78050334  0.82280855  0.75254377    -0.04000
C435        C  0.81512705  0.80777965  0.36025622    -0.11400
C436        C  0.79134234  0.80166419  0.34043892     0.04100
C437        C  0.79153333  0.80257755  0.30001730    -0.11900
C438        C  0.81494478  0.80873583  0.27884958     0.19000
C439        C  0.83805045  0.81280395  0.29877652    -0.08900
C440        C  0.83813655  0.81279612  0.33913750    -0.01900
H441        H  0.77365563  0.79948452  0.28511399     0.05500
C442        C  0.81588812  0.81362907  0.23668236     0.20900
H443        H  0.85637309  0.81703864  0.35415637     0.10700
C444        C  0.83445382  0.83924534  0.22244333    -0.15300
C445        C  0.83644771  0.84493431  0.18294094     0.03700
C446        C  0.81924868  0.82484468  0.15676604    -0.10600
C447        C  0.79999947  0.79949000  0.17120424    -0.00600
C448        C  0.79832336  0.79371510  0.21069130    -0.05800
H449        H  0.84758554  0.85492886  0.24226681     0.06700
H450        H  0.78688167  0.78370337  0.15150244     0.10100
Br451      Br  0.86991528  0.81828602  0.27219246    -0.05500
Br452      Br  0.75888847  0.79427545  0.36723781    -0.02400
Br453      Br  0.86236707  0.88074900  0.16689005     0.00400
Br454      Br  0.77290792  0.75789191  0.22715280    -0.04000
C455        C  0.85372423  0.92426551  0.50314650    -0.11400
C456        C  0.87650269  0.94245073  0.48073203     0.04100
C457        C  0.88700889  0.97005021  0.48443767    -0.11900
C458        C  0.87571100  0.98035365  0.51028439     0.19000
C459        C  0.85284529  0.96259746  0.53206855    -0.08900
C460        C  0.84203806  0.93486509  0.52837837    -0.01900
H461        H  0.90470061  0.98371472  0.46772627     0.05500
C462        C  0.88919842  0.00978763  0.51470166     0.20900
H463        H  0.82459575  0.92159638  0.54577358     0.10700
C464        C  0.88757813  0.02508088  0.48471710    -0.15300
C465        C  0.90381580  0.05308476  0.48439451     0.03700
C466        C  0.92230723  0.06637591  0.51482814    -0.10600
C467        C  0.92285480  0.05081836  0.54566554    -0.00600
C468        C  0.90672722  0.02286676  0.54563938    -0.05800
H469        H  0.87437456  0.01502348  0.46051848     0.06700
H470        H  0.93664296  0.06031484  0.56945116     0.10100
Br471      Br  0.83590101  0.97536984  0.56726378    -0.05500
Br472      Br  0.89582738  0.93203939  0.44591197    -0.02400
Br473      Br  0.90086867  0.07102957  0.43970738     0.00400
Br474      Br  0.91106073  0.00325500  0.58682119    -0.04000
C475        C  0.00700580  0.18021658  0.65420125    -0.11400
C476        C  0.99749454  0.19606559  0.67172502     0.04100
C477        C  0.99583837  0.19687381  0.71190891    -0.11900
C478        C  0.00376160  0.18237732  0.73520427     0.19000
C479        C  0.01413392  0.16733673  0.71796248    -0.08900
C480        C  0.01542352  0.16611263  0.67772041    -0.01900
H481        H  0.98767000  0.20831699  0.72507490     0.05500
C482        C  0.99949842  0.18187466  0.77728373     0.20900
H483        H  0.02297499  0.15407800  0.66476260     0.10700
C484        C  0.97918716  0.15819333  0.79444802    -0.15300
C485        C  0.97516808  0.15657753  0.83439907     0.03700
C486        C  0.99148631  0.17896212  0.85762651    -0.10600
C487        C  0.01095438  0.20302779  0.84031094    -0.00600
C488        C  0.01512601  0.20459833  0.80036704    -0.05800
H489        H  0.96666731  0.14083290  0.77670720     0.06700
H490        H  0.02383010  0.22025578  0.85809468     0.10100
Br491      Br  0.02711842  0.14854824  0.74833307    -0.05500
Br492      Br  0.98427497  0.21530519  0.64282294    -0.02400
Br493      Br  0.94688195  0.12370197  0.85594550     0.00400
Br494      Br  0.04349598  0.23751635  0.77896594    -0.04000
C495        C  0.00324373  0.17413242  0.15386027    -0.11400
C496        C  0.02371318  0.19306557  0.17837038     0.04100
C497        C  0.02018454  0.19047393  0.21864039    -0.11900
C498        C  0.99659846  0.16937164  0.23517766     0.19000
C499        C  0.97634310  0.15055584  0.21106631    -0.08900
C500        C  0.97974947  0.15298084  0.17110926    -0.01900
H501        H  0.03594771  0.20498186  0.23723054     0.05500
C502        C  0.99378389  0.16640348  0.27761005     0.20900
H503        H  0.96368982  0.13793365  0.15348458     0.10700
C504        C  0.97608436  0.17244876  0.29741037    -0.15300
C505        C  0.97289329  0.16949698  0.33763143     0.03700
C506        C  0.98776281  0.16041035  0.35865721    -0.10600
C507        C  0.00488082  0.15373987  0.33831084    -0.00600
C508        C  0.00789346  0.15658425  0.29830405    -0.05800
H509        H  0.96491785  0.17975285  0.28149159     0.06700
H510        H  0.01630608  0.14649386  0.35369229     0.10100
Br511      Br  0.94394897  0.12062293  0.23148456    -0.05500
Br512      Br  0.05656998  0.22317201  0.15949352    -0.02400
Br513      Br  0.94934801  0.17984200  0.36190217     0.00400
Br514      Br  0.03120052  0.14637818  0.27300917    -0.04000
C515        C  0.86355499  0.93071197  0.01622249    -0.11400
C516        C  0.88508436  0.94848850  0.04055100     0.04100
C517        C  0.89495884  0.97606057  0.03868131    -0.11900
C518        C  0.88390744  0.98669807  0.01337152     0.19000
C519        C  0.86197223  0.96920250  0.99016165    -0.08900
C520        C  0.85198510  0.94154679  0.99174436    -0.01900
H521        H  0.91205543  0.98947890  0.05632752     0.05500
C522        C  0.89739522  0.01618626  0.00932925     0.20900
H523        H  0.83534062  0.92853733  0.97315060     0.10700
C524        C  0.91115767  0.02803278  0.97487491    -0.15300
C525        C  0.92717453  0.05589554  0.97133594     0.03700
C526        C  0.92983880  0.07262393  0.00306817    -0.10600
C527        C  0.91504402  0.06057235  0.03705918    -0.00600
C528        C  0.89907090  0.03268549  0.04040156    -0.05800
H529        H  0.91002971  0.01544465  0.95088776     0.06700
H530        H  0.91652829  0.07278186  0.06172745     0.10100
Br531      Br  0.84504530  0.98218763  0.95589250    -0.05500
Br532      Br  0.90352455  0.93762733  0.07573083    -0.02400
Br533      Br  0.94446015  0.06912709  0.92211433     0.00400
Br534      Br  0.88012758  0.01801745  0.08811810    -0.04000
C535        C  0.92514336  0.85664757  0.49655078    -0.11400
C536        C  0.94242838  0.87631778  0.46940520     0.04100
C537        C  0.97028068  0.88664554  0.47095579    -0.11900
C538        C  0.98162508  0.87756783  0.49839826     0.19000
C539        C  0.96456576  0.85752786  0.52468967    -0.08900
C540        C  0.93671311  0.84729892  0.52360303    -0.01900
H541        H  0.98332463  0.90227532  0.45085997     0.05500
C542        C  0.01139212  0.89069355  0.50036940     0.20900
H543        H  0.92413351  0.83212361  0.54452140     0.10700
C544        C  0.02460042  0.90522184  0.53352906    -0.15300
C545        C  0.05275764  0.92073477  0.53484486     0.03700
C546        C  0.06837326  0.92264698  0.50174002    -0.10600
C547        C  0.05499175  0.90683903  0.46930659    -0.00600
C548        C  0.02685400  0.89092825  0.46849491    -0.05800
H549        H  0.01286301  0.90502066  0.55831025     0.06700
H550        H  0.06632674  0.90742618  0.44382864     0.10100
Br551      Br  0.97820221  0.84319021  0.56236092    -0.05500
Br552      Br  0.93034590  0.89073248  0.42948426    -0.02400
Br553      Br  0.06787185  0.93828815  0.58314098     0.00400
Br554      Br  0.01044302  0.86994379  0.42308831    -0.04000
C555        C  0.13648388  0.06128841  0.49632462    -0.11400
C556        C  0.10816598  0.04980729  0.49504374     0.04100
C557        C  0.09680182  0.06620193  0.49697729    -0.11900
C558        C  0.11309606  0.09405849  0.50054284     0.19000
C559        C  0.14134247  0.10566707  0.50173773    -0.08900
C560        C  0.15287951  0.08929854  0.49917573    -0.01900
H561        H  0.07506081  0.05715876  0.49574129     0.05500
C562        C  0.09978322  0.11025848  0.50289743     0.20900
H563        H  0.17461075  0.09837579  0.50051277     0.10700
C564        C  0.09078081  0.11402746  0.53883036    -0.15300
C565        C  0.07467280  0.12583911  0.54151790     0.03700
C566        C  0.06689244  0.13368595  0.50760362    -0.10600
C567        C  0.07721545  0.13110685  0.47184997    -0.00600
C568        C  0.09344821  0.11947973  0.46934192    -0.05800
H569        H  0.09586607  0.10725045  0.56482073     0.06700
H570        H  0.07182213  0.13720330  0.44548161     0.10100
Br571      Br  0.16464422  0.14359008  0.50777705    -0.05500
Br572      Br  0.08394727  0.01190571  0.48908097    -0.02400
Br573      Br  0.06483525  0.13142632  0.59236368     0.00400
Br574      Br  0.10560919  0.11550227  0.41933923    -0.04000
C575        C  0.18048517  0.99515531  0.63847227    -0.11400
C576        C  0.19055458  0.98184968  0.66112302     0.04100
C577        C  0.19388957  0.98670414  0.70099268    -0.11900
C578        C  0.18747373  0.00471339  0.71854891     0.19000
C579        C  0.17799754  0.01828076  0.69600121    -0.08900
C580        C  0.17457422  0.01346865  0.65649248    -0.01900
H581        H  0.20080924  0.97592211  0.71849388     0.05500
C582        C  0.18800196  0.00737382  0.76082522     0.20900
H583        H  0.16723109  0.02423246  0.63980389     0.10700
C584        C  0.21063747  0.02835393  0.77888647    -0.15300
C585        C  0.21031400  0.03292762  0.81861690     0.03700
C586        C  0.18690749  0.01623075  0.84075348    -0.10600
C587        C  0.16432441  0.99532103  0.82215787    -0.00600
C588        C  0.16475725  0.99082704  0.78267921    -0.05800
H589        H  0.22832238  0.04156146  0.76185041     0.06700
H590        H  0.14627640  0.98203976  0.83846233     0.10100
Br591      Br  0.16854219  0.04292422  0.71828385    -0.05500
Br592      Br  0.19842716  0.95569256  0.64027752    -0.02400
Br593      Br  0.24173468  0.06320543  0.84003514     0.00400
Br594      Br  0.13286166  0.96220309  0.75947467    -0.04000
C595        C  0.16987333  0.99726949  0.13655681    -0.11400
C596        C  0.17726633  0.98107060  0.15765823     0.04100
C597        C  0.17702962  0.98162165  0.19815659    -0.11900
C598        C  0.16963661  0.99812192  0.21815591     0.19000
C599        C  0.16194124  0.01392296  0.19730933    -0.08900
C600        C  0.16208083  0.01339884  0.15702739    -0.01900
H601        H  0.18303267  0.96945418  0.21415216     0.05500
C602        C  0.17006378  0.99875310  0.26079906     0.20900
H603        H  0.15615064  0.02585350  0.14163871     0.10700
C604        C  0.19105007  0.02077084  0.27991248    -0.15300
C605        C  0.19179504  0.02227818  0.32034359     0.03700
C606        C  0.17106787  0.00128500  0.34250601    -0.10600
C607        C  0.14996164  0.97937122  0.32276883    -0.00600
C608        C  0.14937173  0.97800623  0.28248892    -0.05800
H609        H  0.20699885  0.03686448  0.26319186     0.06700
H610        H  0.13365318  0.96304265  0.33865386     0.10100
Br611      Br  0.15083124  0.03636454  0.22272354    -0.05500
Br612      Br  0.18962805  0.95921936  0.13348136    -0.02400
Br613      Br  0.22220400  0.05319920  0.34254019     0.00400
Br614      Br  0.11956411  0.94770588  0.25818891    -0.04000
C615        C  0.07726513  0.93320679  0.98603551    -0.11400
C616        C  0.06490680  0.91536292  0.01751775     0.04100
C617        C  0.03673673  0.89890901  0.01915126    -0.11900
C618        C  0.02024589  0.89978884  0.99024553     0.19000
C619        C  0.03240285  0.91706208  0.95856683    -0.08900
C620        C  0.06054337  0.93326075  0.95647410    -0.01900
H621        H  0.02750472  0.88607194  0.04401847     0.05500
C622        C  0.99055856  0.88542228  0.99646884     0.20900
H623        H  0.06928009  0.94673247  0.93212227     0.10700
C624        C  0.98023507  0.89487373  0.02521727    -0.15300
C625        C  0.95243996  0.88299851  0.03174366     0.03700
C626        C  0.93391398  0.86082567  0.00891524    -0.10600
C627        C  0.94457833  0.85093107  0.98075522    -0.00600
C628        C  0.97254050  0.86295695  0.97453165    -0.05800
H629        H  0.99402158  0.91199684  0.04247673     0.06700
H630        H  0.93115957  0.83399320  0.96297207     0.10100
Br631      Br  0.01137291  0.92110881  0.91922599    -0.05500
Br632      Br  0.08446531  0.91380197  0.06124394    -0.02400
Br633      Br  0.94225011  0.89889318  0.07250257     0.00400
Br634      Br  0.98527259  0.84791074  0.93612212    -0.04000
C635        C  0.14000384  0.07384864  0.99186259    -0.11400
C636        C  0.15582162  0.10194623  0.98851648     0.04100
C637        C  0.14344653  0.11753999  0.99015277    -0.11900
C638        C  0.11544535  0.10543304  0.99560570     0.19000
C639        C  0.09973481  0.07738582  0.99952026    -0.08900
C640        C  0.11201599  0.06182394  0.99727636    -0.01900
H641        H  0.15560006  0.13908109  0.98671935     0.05500
C642        C  0.10248832  0.12193802  0.99514894     0.20900
H643        H  0.09971030  0.04024937  0.00028833     0.10700
C644        C  0.09023018  0.12322534  0.96112047    -0.15300
C645        C  0.07518785  0.13612327  0.96035004     0.03700
C646        C  0.07175210  0.14766956  0.99452908    -0.10600
C647        C  0.08546838  0.14767593  0.02804062    -0.00600
C648        C  0.10076790  0.13496142  0.02848918    -0.05800
H649        H  0.09198661  0.11369069  0.93515877     0.06700
H650        H  0.08338623  0.15657278  0.05444760     0.10100
Br651      Br  0.06148904  0.05956896  0.00850439    -0.05500
Br652      Br  0.19400466  0.11961195  0.97943948    -0.02400
Br653      Br  0.06059905  0.13765599  0.91127751     0.00400
Br654      Br  0.11788192  0.13464071  0.07562685    -0.04000
C655        C  0.60553652  0.72908199  0.87187965    -0.11400
C656        C  0.62394475  0.71956641  0.87027437     0.04100
C657        C  0.64918826  0.73409568  0.88811459    -0.11900
C658        C  0.65659516  0.75793964  0.90810140     0.19000
C659        C  0.63855805  0.76764854  0.90945990    -0.08900
C660        C  0.61332500  0.75326577  0.89158346    -0.01900
H661        H  0.66295538  0.72643476  0.88710674     0.05500
C662        C  0.68333223  0.77245747  0.92706356     0.20900
H663        H  0.59955652  0.76088623  0.89357069     0.10700
C664        C  0.70601260  0.79004297  0.90515403    -0.15300
C665        C  0.73187697  0.80326504  0.92132499     0.03700
C666        C  0.73548049  0.79905654  0.96072644    -0.10600
C667        C  0.71241506  0.78152557  0.98262623    -0.00600
C668        C  0.68662454  0.76829834  0.96614463    -0.05800
H669        H  0.70361011  0.79312001  0.87495928     0.06700
H670        H  0.71442003  0.77768968  0.01262638     0.10100
Br671      Br  0.64752744  0.80029188  0.93593919    -0.05500
Br672      Br  0.61527881  0.68581532  0.84739478    -0.02400
Br673      Br  0.76102741  0.82512701  0.88642977     0.00400
Br674      Br  0.65650045  0.74408415  0.99771101    -0.04000
C675        C  0.49453235  0.65455304  0.48585484    -0.11400
C676        C  0.48862121  0.67106591  0.50941535     0.04100
C677        C  0.49093272  0.67065583  0.54945106    -0.11900
C678        C  0.49849309  0.65370723  0.56697134     0.19000
C679        C  0.50220177  0.63564538  0.54406992    -0.08900
C680        C  0.50037164  0.63627460  0.50378918    -0.01900
H681        H  0.48707610  0.68390024  0.56713030     0.05500
C682        C  0.50258237  0.65567434  0.60916567     0.20900
H683        H  0.50459111  0.62316088  0.48644643     0.10700
C684        C  0.48307917  0.63574799  0.63310780    -0.15300
C685        C  0.48501660  0.63843376  0.67325542     0.03700
C686        C  0.50660293  0.66170791  0.69006667    -0.10600
C687        C  0.52674441  0.68107550  0.66603427    -0.00600
C688        C  0.52482190  0.67823411  0.62584000    -0.05800
H689        H  0.46611828  0.61816475  0.62046669     0.06700
H690        H  0.54369908  0.69874337  0.67849448     0.10100
Br691      Br  0.51104567  0.61077818  0.56645333    -0.05500
Br692      Br  0.47650615  0.69417072  0.48945742    -0.02400
Br693      Br  0.45835675  0.60891258  0.70347129     0.00400
Br694      Br  0.55301889  0.70557282  0.59469291    -0.04000
C695        C  0.51525807  0.67167675  0.19104630    -0.11400
C696        C  0.53738092  0.68840044  0.16688552     0.04100
C697        C  0.53588200  0.68336077  0.12706536    -0.11900
C698        C  0.51279467  0.66165248  0.11084702     0.19000
C699        C  0.49128027  0.64433071  0.13505414    -0.08900
C700        C  0.49254911  0.64950046  0.17463830    -0.01900
H701        H  0.55242236  0.69691101  0.10847039     0.05500
C702        C  0.51004907  0.65930806  0.06840704     0.20900
H703        H  0.47560621  0.63602896  0.19271164     0.10700
C704        C  0.51416514  0.64055431  0.04824884    -0.15300
C705        C  0.51163742  0.63830630  0.00788529     0.03700
C706        C  0.50466648  0.65500449  0.98715118    -0.10600
C707        C  0.50019170  0.67340718  0.00792514    -0.00600
C708        C  0.50285007  0.67565343  0.04795924    -0.05800
H709        H  0.51971082  0.62789446  0.06393618     0.06700
H710        H  0.49472319  0.68637283  0.99292813     0.10100
Br711      Br  0.45930814  0.61398180  0.11505441    -0.05500
Br712      Br  0.56924268  0.71942091  0.18578696    -0.02400
Br713      Br  0.51975626  0.61341132  0.98310260     0.00400
Br714      Br  0.49628376  0.70132325  0.07368840    -0.04000
C715        C  0.72461235  0.79905649  0.49121555    -0.11400
C716        C  0.70191495  0.77414092  0.50067333     0.04100
C717        C  0.67778228  0.76503095  0.48062622    -0.11900
C718        C  0.67619314  0.77995916  0.44994701     0.19000
C719        C  0.69846396  0.80551844  0.44176075    -0.08900
C720        C  0.72236570  0.81500354  0.46271629    -0.01900
H721        H  0.66068156  0.74541644  0.48733291     0.05500
C722        C  0.65205003  0.76744374  0.42497205     0.20900
H723        H  0.73999173  0.83381413  0.45432138     0.10700
C724        C  0.63438072  0.77749445  0.42486293    -0.15300
C725        C  0.61037359  0.76468179  0.40374940     0.03700
C726        C  0.60376013  0.74138008  0.38204217    -0.10600
C727        C  0.62223577  0.73225120  0.38070336    -0.00600
C728        C  0.64604644  0.74489692  0.40210050    -0.05800
H729        H  0.63899300  0.79501333  0.44198737     0.06700
H730        H  0.61751886  0.71433476  0.36453070     0.10100
Br731      Br  0.69835781  0.82658947  0.39916893    -0.05500
Br732      Br  0.70380776  0.75091936  0.53834769    -0.02400
Br733      Br  0.58774928  0.78020150  0.40555001     0.00400
Br734      Br  0.66946082  0.73021244  0.39972098    -0.04000
C735        C  0.40381164  0.58974929  0.83891713    -0.11400
C736        C  0.39088826  0.56661079  0.86275043     0.04100
C737        C  0.36259387  0.55066927  0.86303448    -0.11900
C738        C  0.34679261  0.55695421  0.83953800     0.19000
C739        C  0.35951527  0.57922993  0.81488564    -0.08900
C740        C  0.38756612  0.59524414  0.81465668    -0.01900
H741        H  0.35280663  0.53351417  0.88220092     0.05500
C742        C  0.31708078  0.54207442  0.84365433     0.20900
H743        H  0.39657792  0.61255418  0.79573944     0.10700
C744        C  0.30555403  0.54929258  0.87361511    -0.15300
C745        C  0.27768914  0.53899800  0.87560899     0.03700
C746        C  0.26057617  0.52088997  0.84686292    -0.10600
C747        C  0.27227334  0.51267773  0.81793811    -0.00600
C748        C  0.30024111  0.52316834  0.81613886    -0.05800
H749        H  0.31848772  0.56380142  0.89492572     0.06700
H750        H  0.25979395  0.49872520  0.79579311     0.10100
Br751      Br  0.33926082  0.58947695  0.78244283    -0.05500
Br752      Br  0.40998323  0.55548206  0.89608440    -0.02400
Br753      Br  0.26518075  0.55107731  0.91860288     0.00400
Br754      Br  0.31478553  0.51194987  0.77491465    -0.04000
C755        C  0.07331509  0.27297580  0.97658864    -0.11400
C756        C  0.08826913  0.27517873  0.94287840     0.04100
C757        C  0.10249547  0.29978741  0.92334073    -0.11900
C758        C  0.10190191  0.32241932  0.93680672     0.19000
C759        C  0.08824854  0.32055789  0.97175455    -0.08900
C760        C  0.07400807  0.29596114  0.99121893    -0.01900
H761        H  0.11265096  0.30084424  0.89638072     0.05500
C762        C  0.11200786  0.34648454  0.91168966     0.20900
H763        H  0.06220243  0.29444289  0.01661027     0.10700
C764        C  0.09304066  0.35110358  0.89338057    -0.15300
C765        C  0.10109849  0.37470199  0.87260566     0.03700
C766        C  0.12870508  0.39441670  0.86973000    -0.10600
C767        C  0.14788319  0.38896490  0.88575828    -0.00600
C768        C  0.13970648  0.36518697  0.90664754    -0.05800
H769        H  0.07172206  0.33652598  0.89616526     0.06700
H770        H  0.16915226  0.40386729  0.88398892     0.10100
Br771      Br  0.08720514  0.35080426  0.99272896    -0.05500
Br772      Br  0.08728997  0.24435052  0.92017424    -0.02400
Br773      Br  0.07342744  0.37896189  0.84869984     0.00400
Br774      Br  0.16680580  0.35988869  0.93001970    -0.04000
C775        C  0.16773034  0.48701346  0.68952088    -0.11400
C776        C  0.17467382  0.50922791  0.66514875     0.04100
C777        C  0.17177558  0.50569951  0.62517544    -0.11900
C778        C  0.16226443  0.48042073  0.60848665     0.19000
C779        C  0.15642949  0.45844072  0.63231103    -0.08900
C780        C  0.15915925  0.46182449  0.67249232    -0.01900
H781        H  0.17695898  0.52281572  0.60690427     0.05500
C782        C  0.15912485  0.47789313  0.56604111     0.20900
H783        H  0.15368961  0.44452784  0.69049019     0.10700
C784        C  0.17872583  0.47637985  0.54364804    -0.15300
C785        C  0.17809927  0.47710900  0.50329943     0.03700
C786        C  0.15768713  0.47966745  0.48466344    -0.10600
C787        C  0.13734017  0.47988297  0.50712633    -0.00600
C788        C  0.13803559  0.47916046  0.54753592    -0.05800
H789        H  0.19481272  0.47508587  0.55763513     0.06700
H790        H  0.12132926  0.48139008  0.49330364     0.10100
Br791      Br  0.14359126  0.42332600  0.61127645    -0.05500
Br792      Br  0.18929058  0.54522769  0.68399799    -0.02400
Br793      Br  0.20497978  0.47330943  0.47522371     0.00400
Br794      Br  0.10992130  0.48013449  0.57646077    -0.04000
C795        C  0.15591301  0.47536692  0.18764438    -0.11400
C796        C  0.13367798  0.47570459  0.17106341     0.04100
C797        C  0.13171552  0.47666957  0.13105034    -0.11900
C798        C  0.15133477  0.47675489  0.10680309     0.19000
C799        C  0.17256808  0.47454342  0.12303630    -0.08900
C800        C  0.17474707  0.47384962  0.16329000    -0.01900
H801        H  0.11507157  0.47787747  0.11879328     0.05500
C802        C  0.15024809  0.48109350  0.06499382     0.20900
H803        H  0.19166798  0.47314902  0.17551568     0.10700
C804        C  0.16929162  0.50582539  0.04900110    -0.15300
C805        C  0.16908115  0.51099352  0.00964970     0.03700
C806        C  0.14950411  0.49095413  0.98531556    -0.10600
C807        C  0.12969901  0.46661544  0.00192059    -0.00600
C808        C  0.12992937  0.46161673  0.04136534    -0.05800
H809        H  0.18443954  0.52124168  0.06735602     0.06700
H810        H  0.11454518  0.45091245  0.98394046     0.10100
Br811      Br  0.19895765  0.47252057  0.09119947    -0.05500
Br812      Br  0.10480194  0.47397746  0.20147075    -0.02400
Br813      Br  0.19564481  0.54613476  0.99174032     0.00400
Br814      Br  0.10294859  0.42741785  0.06128879    -0.04000
C815        C  0.26325583  0.51214662  0.33179632    -0.11400
C816        C  0.27777789  0.51878181  0.29655226     0.04100
C817        C  0.30612331  0.53315781  0.29679959    -0.11900
C818        C  0.32036755  0.54098691  0.33169264     0.19000
C819        C  0.30592555  0.53343688  0.36677477    -0.08900
C820        C  0.27769574  0.51914554  0.36661495    -0.01900
H821        H  0.31708930  0.53927480  0.26968963     0.05500
C822        C  0.34989551  0.55991164  0.33108855     0.20900
H823        H  0.26694935  0.51440315  0.39392161     0.10700
C824        C  0.35921170  0.58718570  0.32535524    -0.15300
C825        C  0.38678020  0.60621837  0.32631596     0.03700
C826        C  0.40591203  0.59797064  0.33237789    -0.10600
C827        C  0.39638682  0.57052020  0.33846221    -0.00600
C828        C  0.36866774  0.55158305  0.33792230    -0.05800
H829        H  0.34479128  0.59379922  0.32099479     0.06700
H830        H  0.41055468  0.56368202  0.34338898     0.10100
Br831      Br  0.32388356  0.54413079  0.41560946    -0.05500
Br832      Br  0.26026065  0.51163905  0.24737423    -0.02400
Br833      Br  0.39629107  0.64316352  0.32209639     0.00400
Br834      Br  0.35723481  0.51459054  0.34661325    -0.04000
C835        C  0.06756565  0.26235849  0.46387101    -0.11400
C836        C  0.06946285  0.28621362  0.47844766     0.04100
C837        C  0.08366838  0.31013166  0.45745495    -0.11900
C838        C  0.09602621  0.31095482  0.42199820     0.19000
C839        C  0.09534269  0.28776215  0.40831621    -0.08900
C840        C  0.08143784  0.26389116  0.42925020    -0.01900
H841        H  0.08433267  0.32809549  0.46821634     0.05500
C842        C  0.10750579  0.33561331  0.39840725     0.20900
H843        H  0.08050403  0.24612825  0.41716021     0.10700
C844        C  0.13556281  0.35288678  0.39624964    -0.15300
C845        C  0.14655210  0.37777908  0.37754652     0.03700
C846        C  0.12923731  0.38554922  0.36070944    -0.10600
C847        C  0.10127810  0.36750607  0.36122260    -0.00600
C848        C  0.09038522  0.34273653  0.37972098    -0.05800
H849        H  0.14885840  0.34747109  0.41055208     0.06700
H850        H  0.08770879  0.37320140  0.34848982     0.10100
Br851      Br  0.11124984  0.28722422  0.35965462    -0.05500
Br852      Br  0.05285972  0.28801978  0.52589244    -0.02400
Br853      Br  0.18489378  0.40145436  0.37973035     0.00400
Br854      Br  0.05188205  0.31961756  0.37991080    -0.04000
C855        C  0.20878377  0.94260990  0.95262795    -0.11400
C856        C  0.21641059  0.92826688  0.97720374     0.04100
C857        C  0.22655200  0.91267934  0.96140586    -0.11900
C858        C  0.22938397  0.91123421  0.92121544     0.19000
C859        C  0.22068077  0.92468619  0.89668507    -0.08900
C860        C  0.21061980  0.94026888  0.91244537    -0.01900
H861        H  0.23354589  0.90274541  0.98055519     0.05500
C862        C  0.24486390  0.89894814  0.90576228     0.20900
H863        H  0.20482639  0.95118583  0.89320156     0.10700
C864        C  0.23201967  0.87480532  0.88484757    -0.15300
C865        C  0.24674542  0.86336585  0.86956814     0.03700
C866        C  0.27506855  0.87631498  0.87504404    -0.10600
C867        C  0.28757013  0.90069297  0.89581150    -0.00600
C868        C  0.27290104  0.91186821  0.91101175    -0.05800
H869        H  0.21039592  0.86477653  0.88048555     0.06700
H870        H  0.30916086  0.91143265  0.90057763     0.10100
Br871      Br  0.22406539  0.92407479  0.84158203    -0.05500
Br872      Br  0.21629813  0.93179124  0.03228108    -0.02400
Br873      Br  0.22664776  0.83008101  0.84230109     0.00400
Br874      Br  0.29241633  0.94542821  0.93795784    -0.04000
C875        C  0.26861405  0.73997802  0.85169302    -0.11400
C876        C  0.24143285  0.72725274  0.83910772     0.04100
C877        C  0.22557585  0.69906736  0.83853675    -0.11900
C878        C  0.23605559  0.68294998  0.85042866     0.19000
C879        C  0.26302951  0.69554186  0.86293613    -0.08900
C880        C  0.27878859  0.72355046  0.86384690    -0.01900
H881        H  0.20492719  0.68964595  0.82867676     0.05500
C882        C  0.21923145  0.65314466  0.84776452     0.20900
H883        H  0.29953036  0.73245951  0.87308453     0.10700
C884        C  0.21167100  0.64090354  0.81133549    -0.15300
C885        C  0.19859992  0.61287710  0.80728263     0.03700
C886        C  0.19316719  0.59642704  0.84022931    -0.10600
C887        C  0.19941332  0.60879050  0.87681108    -0.00600
C888        C  0.21186847  0.63669528  0.88078549    -0.05800
H889        H  0.21681351  0.65329624  0.78573193     0.06700
H890        H  0.19480063  0.59667966  0.90263115     0.10100
Br891      Br  0.28012344  0.67549578  0.87657875    -0.05500
Br892      Br  0.22422012  0.74670205  0.82302926    -0.02400
Br893      Br  0.19059929  0.59885608  0.75573081     0.00400
Br894      Br  0.21814586  0.65138483  0.93199659    -0.04000
C895        C  0.47407524  0.73240862  0.83850877    -0.11400
C896        C  0.44642676  0.72338535  0.83284016     0.04100
C897        C  0.43752686  0.74181295  0.83119318    -0.11900
C898        C  0.45556159  0.76936337  0.83534730     0.19000
C899        C  0.48306944  0.77850072  0.84176382    -0.08900
C900        C  0.49213640  0.76003653  0.84339549    -0.01900
H901        H  0.41623078  0.73455760  0.82721949     0.05500
C902        C  0.44444833  0.78758427  0.83458969     0.20900
H903        H  0.51338024  0.76730872  0.84783736     0.10700
C904        C  0.44115527  0.79812455  0.86940863    -0.15300
C905        C  0.42560796  0.81057005  0.87104751     0.03700
C906        C  0.41291885  0.81245555  0.83742076    -0.10600
C907        C  0.41804652  0.80378875  0.80208995    -0.00600
C908        C  0.43351137  0.79130546  0.80052367    -0.05800
H909        H  0.44973282  0.79562790  0.89570663     0.06700
H910        H  0.40880532  0.80540883  0.77587697     0.10100
Br911      Br  0.50890145  0.81594459  0.84725622    -0.05500
Br912      Br  0.41934619  0.68601958  0.83003484    -0.02400
Br913      Br  0.42265031  0.82488138  0.91974797     0.00400
Br914      Br  0.43825307  0.77861934  0.75148834    -0.04000
C915        C  0.33439979  0.83810114  0.48933713    -0.11400
C916        C  0.35458422  0.85813737  0.51308219     0.04100
C917        C  0.35131886  0.85649512  0.55336031    -0.11900
C918        C  0.32823447  0.83537771  0.57080690     0.19000
C919        C  0.30789331  0.81584947  0.54748721    -0.08900
C920        C  0.31107513  0.81725599  0.50739453    -0.01900
H921        H  0.36701640  0.87166406  0.57129119     0.05500
C922        C  0.32645106  0.83313743  0.61338816     0.20900
H923        H  0.29510926  0.80162729  0.49037750     0.10700
C924        C  0.30849971  0.83849650  0.63389681    -0.15300
C925        C  0.30712293  0.83719120  0.67439758     0.03700
C926        C  0.32394875  0.83029299  0.69494671    -0.10600
C927        C  0.34120433  0.82412647  0.67388954    -0.00600
C928        C  0.34262912  0.82560055  0.63370837    -0.05800
H929        H  0.29592547  0.84425140  0.61833639     0.06700
H930        H  0.35417380  0.81857455  0.68880624     0.10100
Br931      Br  0.27582502  0.78624888  0.56920453    -0.05500
Br932      Br  0.38690944  0.88852417  0.49335941    -0.02400
Br933      Br  0.28338740  0.84694622  0.69948903     0.00400
Br934      Br  0.36708262  0.81713264  0.60782012    -0.04000
C935        C  0.33175626  0.83901144  0.19132051    -0.11400
C936        C  0.32210151  0.81686506  0.16629214     0.04100
C937        C  0.32638833  0.82108453  0.12651804    -0.11900
C938        C  0.34071811  0.84717968  0.11126401     0.19000
C939        C  0.34966737  0.86929928  0.13626794    -0.08900
C940        C  0.34496080  0.86505862  0.17592414    -0.01900
H941        H  0.31880877  0.80395563  0.10740234     0.05500
C942        C  0.34598292  0.85071455  0.06924196     0.20900
H943        H  0.35261821  0.88223627  0.19498590     0.10700
C944        C  0.33473554  0.86299364  0.04742315    -0.15300
C945        C  0.33766639  0.86484018  0.00726099     0.03700
C946        C  0.35154523  0.85368008  0.98828085    -0.10600
C947        C  0.36326834  0.84191285  0.01018043    -0.00600
C948        C  0.36093577  0.84072540  0.05040210    -0.05800
H949        H  0.32303235  0.87053230  0.06160823     0.06700
H950        H  0.37409956  0.83343767  0.99590319     0.10100
Br951      Br  0.36988842  0.90565133  0.11819309    -0.05500
Br952      Br  0.30221099  0.78062432  0.18481778    -0.02400
Br953      Br  0.32021164  0.88063348  0.97977211     0.00400
Br954      Br  0.37887121  0.82565505  0.07834891    -0.04000
C955        C  0.19571136  0.92151988  0.45566324    -0.11400
C956        C  0.21894680  0.92167574  0.46971407     0.04100
C957        C  0.22805069  0.90600694  0.45155259    -0.11900
C958        C  0.21464562  0.89006207  0.41953043     0.19000
C959        C  0.19082586  0.88857851  0.40675189    -0.08900
C960        C  0.18148869  0.90408117  0.42482146    -0.01900
H961        H  0.24638929  0.90704925  0.46154206     0.05500
C962        C  0.22758496  0.87751384  0.39776736     0.20900
H963        H  0.16356897  0.90322835  0.41345677     0.10700
C964        C  0.21888292  0.85027672  0.40286708    -0.15300
C965        C  0.23329560  0.83903581  0.38632414     0.03700
C966        C  0.25715971  0.85543551  0.36480553    -0.10600
C967        C  0.26442529  0.88221071  0.35752183    -0.00600
C968        C  0.24991509  0.89323274  0.37375899    -0.05800
H969        H  0.20124905  0.83792330  0.42056706     0.06700
H970        H  0.28233626  0.89520048  0.34072511     0.10100
Br971      Br  0.17156454  0.86712680  0.36301906    -0.05500
Br972      Br  0.24033250  0.94330791  0.51218133    -0.02400
Br973      Br  0.21904529  0.80130378  0.39389074     0.00400
Br974      Br  0.26198177  0.93025903  0.36357289    -0.04000
C975        C  0.27295814  0.73146414  0.33483868    -0.11400
C976        C  0.24922065  0.71616857  0.35732112     0.04100
C977        C  0.23569279  0.68806743  0.35607108    -0.11900
C978        C  0.24501551  0.67458537  0.33261064     0.19000
C979        C  0.26763845  0.68960028  0.30866532    -0.08900
C980        C  0.28144011  0.71761477  0.31015252    -0.01900
H981        H  0.21792038  0.67660417  0.37394772     0.05500
C982        C  0.23102196  0.64489810  0.33395171     0.20900
H983        H  0.29911441  0.72854292  0.29194081     0.10700
C984        C  0.20448599  0.62974452  0.32037045    -0.15300
C985        C  0.19061545  0.60163307  0.32151578     0.03700
C986        C  0.20339683  0.58818235  0.33658112    -0.10600
C987        C  0.22975060  0.60353536  0.35100089    -0.00600
C988        C  0.24349726  0.63154837  0.34991848    -0.05800
H989        H  0.19451535  0.63986390  0.30885681     0.06700
H990        H  0.23992732  0.59371546  0.36283520     0.10100
Br991      Br  0.28016869  0.67279678  0.27277909    -0.05500
Br992      Br  0.23349019  0.73164197  0.39004914    -0.02400
Br993      Br  0.15388759  0.58305018  0.30411252     0.00400
Br994      Br  0.27897112  0.65062032  0.37182235    -0.04000
C995        C  0.41556375  0.82067411  0.33771929    -0.11400
C996        C  0.42330233  0.81347937  0.30293343     0.04100
C997        C  0.43908761  0.80143800  0.30398456    -0.11900
C998        C  0.44741889  0.79632194  0.33921279     0.19000
C999        C  0.44264421  0.80650359  0.37353437    -0.08900
C1000       C  0.42670515  0.81855729  0.37260693    -0.01900
H1001       H  0.44354254  0.79456028  0.27732496    -0.07100
C1002       C  0.45772264  0.77745860  0.33950867     0.20900
H1003       H  0.42152746  0.82455571  0.39946643     0.10700
C1004       C  0.48467931  0.78642134  0.34890376    -0.15300
C1005       C  0.49464292  0.76870901  0.34826475     0.03700
C1006       C  0.47752327  0.74158526  0.33783918    -0.10600
C1007       C  0.45070870  0.73286633  0.32792623    -0.00600
C1008       C  0.44070672  0.75040555  0.32896211    -0.05800
H1009       H  0.49802823  0.80726082  0.35633730     0.06700
H1010       H  0.43721982  0.71209103  0.32024695     0.10100
Br1011     Br  0.45546973  0.80241177  0.42254393    -0.05500
Br1012     Br  0.41248499  0.81893614  0.25302514    -0.02400
Br1013     Br  0.53210383  0.78309663  0.35935627     0.00400
Br1014     Br  0.40324311  0.73602780  0.31707288    -0.04000
C1015       C  0.59047791  0.52668631  0.70242562    -0.11400
C1016       C  0.57069195  0.51234518  0.73142066     0.04100
C1017       C  0.55686243  0.52383782  0.74894603    -0.11900
C1018       C  0.56177923  0.54918036  0.73791002     0.19000
C1019       C  0.58002467  0.56273648  0.70749799    -0.08900
C1020       C  0.59406101  0.55147463  0.69001373    -0.01900
H1021       H  0.54254607  0.51316029  0.77201975     0.05500
C1022       C  0.54936935  0.56207645  0.76038373     0.20900
H1023       H  0.60884503  0.56291588  0.66783087     0.10700
C1024       C  0.56032422  0.57349535  0.79639700    -0.15300
C1025       C  0.55099782  0.58824053  0.81681584     0.03700
C1026       C  0.53023029  0.59144889  0.80142380    -0.10600
C1027       C  0.51847110  0.57903809  0.76622626    -0.00600
C1028       C  0.52777542  0.56429045  0.74579101    -0.05800
H1029       H  0.57687819  0.57180630  0.80790927     0.06700
H1030       H  0.50277238  0.58177520  0.75382349     0.10100
Br1031     Br  0.58789525  0.59758817  0.69073171    -0.05500
Br1032     Br  0.56134853  0.47724849  0.74950875    -0.02400
Br1033     Br  0.56828042  0.60515844  0.86427064     0.00400
Br1034     Br  0.51112049  0.54829110  0.69755003    -0.04000
C1035       C  0.79677478  0.72620501  0.54372995    -0.11400
C1036       C  0.77354508  0.70278390  0.53020847     0.04100
C1037       C  0.76421738  0.67847330  0.54968773    -0.11900
C1038       C  0.77766587  0.67683387  0.58217349     0.19000
C1039       C  0.80174532  0.69940684  0.59399013    -0.08900
C1040       C  0.81110995  0.72377624  0.57487532    -0.01900
H1041       H  0.74586430  0.66085150  0.54013444     0.05500
C1042       C  0.76509207  0.65181042  0.60467188     0.20900
H1043       H  0.82920714  0.74111692  0.58561307     0.10700
C1044       C  0.76741767  0.63009541  0.59162839    -0.15300
C1045       C  0.75252083  0.60499136  0.60926652     0.03700
C1046       C  0.73496977  0.60148869  0.64019293    -0.10600
C1047       C  0.73342775  0.62344720  0.65415527    -0.00600
C1048       C  0.74853221  0.64861174  0.63679611    -0.05800
H1049       H  0.77997583  0.63243257  0.56674823     0.06700
H1050       H  0.71958149  0.62073572  0.67747048     0.10100
Br1051     Br  0.82188021  0.69800011  0.63693797    -0.05500
Br1052     Br  0.75315897  0.70200520  0.48597517    -0.02400
Br1053     Br  0.75467789  0.57545227  0.58782463     0.00400
Br1054     Br  0.74446171  0.67756887  0.65602603    -0.04000
C1055       C  0.65600079  0.50395691  0.02037719    -0.11400
C1056       C  0.65716932  0.52585668  0.00030481     0.04100
C1057       C  0.66135987  0.52802629  0.96026682    -0.11900
C1058       C  0.66455137  0.50887325  0.93975963     0.19000
C1059       C  0.66332906  0.48711935  0.95944505    -0.08900
C1060       C  0.65908236  0.48478574  0.99926987    -0.01900
H1061       H  0.66204158  0.54467521  0.94498566     0.05500
C1062       C  0.66684190  0.51046169  0.89739395     0.20900
H1063       H  0.65831669  0.46784993  0.01377919     0.10700
C1064       C  0.69229835  0.52359894  0.87945915    -0.15300
C1065       C  0.69477493  0.52352492  0.83911058     0.03700
C1066       C  0.67127379  0.51005424  0.81616283    -0.10600
C1067       C  0.64586699  0.49740211  0.83480225    -0.00600
C1068       C  0.64355984  0.49744839  0.87480494    -0.05800
H1069       H  0.71032055  0.53346755  0.89701034     0.06700
H1070       H  0.62740514  0.48713544  0.81825745     0.10100
Br1071     Br  0.66706280  0.45994755  0.93289664    -0.05500
Br1072     Br  0.65451663  0.55420684  0.02522423    -0.02400
Br1073     Br  0.73072569  0.54105790  0.81805003     0.00400
Br1074     Br  0.60811712  0.47873478  0.89755769    -0.04000
C1075       C  0.67051401  0.50992883  0.31449509    -0.11400
C1076       C  0.69319846  0.51654857  0.33751233     0.04100
C1077       C  0.69084485  0.51658174  0.37787152    -0.11900
C1078       C  0.66623361  0.51033766  0.39550526     0.19000
C1079       C  0.64400958  0.50483076  0.37254984    -0.08900
C1080       C  0.64623444  0.50453532  0.33251686    -0.01900
H1081       H  0.70804113  0.52089806  0.39557295     0.05500
C1082       C  0.66361573  0.50868337  0.43786799     0.20900
H1083       H  0.62873692  0.49985948  0.31531128     0.10700
C1084       C  0.67097814  0.53197663  0.45920439    -0.15300
C1085       C  0.66852851  0.53100174  0.49947184     0.03700
C1086       C  0.65871005  0.50628784  0.51894657    -0.10600
C1087       C  0.65104572  0.48294055  0.49725365    -0.00600
C1088       C  0.65320908  0.48396088  0.45701556    -0.05800
H1089       H  0.67883666  0.55099876  0.44445922     0.06700
H1090       H  0.64345217  0.46383746  0.51166435     0.10100
Br1091     Br  0.61009776  0.49718502  0.39470342    -0.05500
Br1092     Br  0.72705068  0.52377232  0.31575618    -0.02400
Br1093     Br  0.68082374  0.56442023  0.52601087     0.00400
Br1094     Br  0.64187912  0.45118230  0.42928506    -0.04000
C1095       C  0.54221008  0.60576474  0.30796448    -0.11400
C1096       C  0.57003622  0.61526132  0.30209467     0.04100
C1097       C  0.57836087  0.59911830  0.28336892    -0.11900
C1098       C  0.55949618  0.57349269  0.26985476     0.19000
C1099       C  0.53182708  0.56356377  0.27687156    -0.08900
C1100       C  0.52339501  0.57959136  0.29596115    -0.01900
H1101       H  0.59969023  0.60673349  0.27884892     0.05500
C1102       C  0.56933127  0.55759937  0.24871724     0.20900
H1103       H  0.50202205  0.57208058  0.29960315     0.10700
C1104       C  0.56782628  0.53514461  0.26643023    -0.15300
C1105       C  0.57921265  0.52114856  0.24903729     0.03700
C1106       C  0.59272749  0.52971687  0.21276011    -0.10600
C1107       C  0.59307327  0.55165779  0.19452314    -0.00600
C1108       C  0.58166096  0.56552303  0.21211588    -0.05800
H1109       H  0.55835225  0.52890519  0.29460969     0.06700
H1110       H  0.60297179  0.55868769  0.16676957     0.10100
Br1111     Br  0.50478211  0.52903128  0.25839557    -0.05500
Br1112     Br  0.59782043  0.64997776  0.31936697    -0.02400
Br1113     Br  0.57613463  0.49145566  0.27812728     0.00400
Br1114     Br  0.58359426  0.59537503  0.18509605    -0.04000
C1115       C  0.79866406  0.73141446  0.04678354    -0.11400
C1116       C  0.80643788  0.71306384  0.03345916     0.04100
C1117       C  0.79480267  0.68729454  0.05008516    -0.11900
C1118       C  0.77561301  0.67940233  0.08006164     0.19000
C1119       C  0.76834724  0.69774106  0.09385511    -0.08900
C1120       C  0.77981971  0.72323900  0.07756161    -0.01900
H1121       H  0.80030332  0.67312719  0.03900921     0.05500
C1122       C  0.76120775  0.65138129  0.09457665     0.20900
H1123       H  0.77347366  0.73664402  0.08911681     0.10700
C1124       C  0.76932599  0.64473111  0.12894551    -0.15300
C1125       C  0.75365535  0.61924357  0.14599933     0.03700
C1126       C  0.72911513  0.59994561  0.12871406    -0.10600
C1127       C  0.72168689  0.60675902  0.09366966    -0.00600
C1128       C  0.73733437  0.63199693  0.07677946    -0.05800
H1129       H  0.78750321  0.65970829  0.14316074     0.06700
H1130       H  0.70329790  0.59245014  0.07925186     0.10100
Br1131     Br  0.74173298  0.68841901  0.13391514    -0.05500
Br1132     Br  0.83185274  0.72123390  0.99211736    -0.02400
Br1133     Br  0.76621366  0.61293100  0.19375412     0.00400
Br1134     Br  0.72451210  0.63958152  0.03021659    -0.04000
C1135       C  0.52302318  0.25941376  0.67202382    -0.11400
C1136       C  0.51493668  0.27349013  0.64723124     0.04100
C1137       C  0.52911868  0.30154985  0.64736432    -0.11900
C1138       C  0.55113682  0.31590340  0.67184924     0.19000
C1139       C  0.55841514  0.30212719  0.69781788    -0.08900
C1140       C  0.54441640  0.27419219  0.69781232    -0.01900
H1141       H  0.52329544  0.31226418  0.62773825     0.05500
C1142       C  0.56710267  0.34525232  0.66888286     0.20900
H1143       H  0.55103314  0.26409549  0.71731196     0.10700
C1144       C  0.55856603  0.36079961  0.68871882    -0.15300
C1145       C  0.57402070  0.38880476  0.68787890     0.03700
C1146       C  0.59867684  0.40161831  0.66687684    -0.10600
C1147       C  0.60662627  0.38569385  0.64619526    -0.00600
C1148       C  0.59107016  0.35778494  0.64706989    -0.05800
H1149       H  0.53991210  0.35107401  0.70515345     0.06700
H1150       H  0.62531349  0.39488491  0.62984121     0.10100
Br1151     Br  0.58790427  0.32069658  0.73296528    -0.05500
Br1152     Br  0.48481168  0.25621599  0.61277060    -0.02400
Br1153     Br  0.55950351  0.40779110  0.71511463     0.00400
Br1154     Br  0.60343756  0.33750269  0.61839337    -0.04000
C1155       C  0.40954886  0.93743503  0.79342739    -0.11400
C1156       C  0.42478316  0.94135714  0.75896529     0.04100
C1157       C  0.43676023  0.96609306  0.73987338    -0.11900
C1158       C  0.43415438  0.98732797  0.75415297     0.19000
C1159       C  0.42041495  0.98413362  0.78934074    -0.08900
C1160       C  0.40840738  0.95948083  0.80868536    -0.01900
H1161       H  0.44739279  0.96849172  0.71285196     0.05500
C1162       C  0.44350296  0.01164676  0.73017203     0.20900
H1163       H  0.39718489  0.95733748  0.83500931     0.10700
C1164       C  0.42410398  0.01590347  0.71258541    -0.15300
C1165       C  0.43167263  0.03939062  0.69191741     0.03700
C1166       C  0.45921588  0.05933953  0.68869391    -0.10600
C1167       C  0.47876318  0.05416191  0.70390267    -0.00600
C1168       C  0.47107855  0.03048447  0.72453011    -0.05800
H1169       H  0.40288116  0.00108144  0.71568870     0.06700
H1170       H  0.49996034  0.06925490  0.70191256     0.10100
Br1171     Br  0.41694978  0.01275187  0.81152840    -0.05500
Br1172     Br  0.42976740  0.91415456  0.73469611    -0.02400
Br1173     Br  0.40337962  0.04309866  0.66890778     0.00400
Br1174     Br  0.49874773  0.02560757  0.74686551    -0.04000
C1175       C  0.39106770  0.13337844  0.62403563    -0.11400
C1176       C  0.38585682  0.14902862  0.59779604     0.04100
C1177       C  0.36128501  0.13746385  0.57781068    -0.11900
C1178       C  0.34124458  0.11067761  0.58407945     0.19000
C1179       C  0.34529014  0.09597997  0.61293849    -0.08900
C1180       C  0.36994176  0.10723360  0.63238959    -0.01900
H1181       H  0.35812912  0.14920903  0.55639881     0.05500
C1182       C  0.31741358  0.09739940  0.55820844     0.20900
H1183       H  0.37291037  0.09490269  0.65296136     0.10700
C1184       C  0.31498617  0.07696935  0.53354781    -0.15300
C1185       C  0.29146647  0.06140305  0.51227906     0.03700
C1186       C  0.26984663  0.06634246  0.51489729    -0.10600
C1187       C  0.27309490  0.08817266  0.53716064    -0.00600
C1188       C  0.29660604  0.10360096  0.55889084    -0.05800
H1189       H  0.33107924  0.07238759  0.53207201     0.06700
H1190       H  0.25652558  0.09197410  0.53999402     0.10100
Br1191     Br  0.31777453  0.06015402  0.62632116    -0.05500
Br1192     Br  0.41098835  0.18627518  0.58783669    -0.02400
Br1193     Br  0.28946454  0.03297605  0.48098608     0.00400
Br1194     Br  0.29823018  0.13109977  0.59185909    -0.04000
C1195       C  0.48494042  0.13631846  0.01567321    -0.11400
C1196       C  0.45892619  0.12283524  0.99922452     0.04100
C1197       C  0.45603879  0.12316683  0.95910683    -0.11900
C1198       C  0.47873743  0.13650687  0.93487394     0.19000
C1199       C  0.50470094  0.14869692  0.95117087    -0.08900
C1200       C  0.50761148  0.14877690  0.99122478    -0.01900
H1201       H  0.43599777  0.11387662  0.94689460     0.05500
C1202       C  0.47514081  0.13959020  0.89323931     0.20900
H1203       H  0.52768765  0.15902447  0.00340163     0.10700
C1204       C  0.48352227  0.16532499  0.87884535    -0.15300
C1205       C  0.48249632  0.16962070  0.83935643     0.03700
C1206       C  0.47257379  0.14785366  0.81348793    -0.10600
C1207       C  0.46271888  0.12186869  0.82812020    -0.00600
C1208       C  0.46408668  0.11762539  0.86765247    -0.05800
H1209       H  0.49148960  0.18229129  0.89843421     0.06700
H1210       H  0.45528922  0.10496639  0.80846887     0.10100
Br1211     Br  0.53680809  0.16557152  0.91985400    -0.05500
Br1212     Br  0.42661224  0.10609497  0.03017548    -0.02400
Br1213     Br  0.49458576  0.20551742  0.82222392     0.00400
Br1214     Br  0.45264757  0.08191032  0.88486117    -0.04000
C1215       C  0.49902507  0.15631991  0.51743768    -0.11400
C1216       C  0.48651961  0.13203967  0.49648836     0.04100
C1217       C  0.48537173  0.13254441  0.45606814    -0.11900
C1218       C  0.49680020  0.15696425  0.43591484     0.19000
C1219       C  0.50996235  0.18116493  0.45674243    -0.08900
C1220       C  0.51073108  0.18069256  0.49707453    -0.01900
H1221       H  0.47522801  0.11380896  0.44028121     0.05500
C1222       C  0.49515363  0.15696643  0.39320101     0.20900
H1223       H  0.52047449  0.19951894  0.51267551     0.10700
C1224       C  0.47950497  0.16622304  0.37532406    -0.15300
C1225       C  0.47868299  0.16776905  0.33492431     0.03700
C1226       C  0.49381171  0.15987214  0.31153028    -0.10600
C1227       C  0.50900308  0.15012508  0.32996386    -0.00600
C1228       C  0.50977620  0.14866712  0.37010178    -0.05800
H1229       H  0.46813656  0.17262106  0.39299103     0.06700
H1230       H  0.52060651  0.14358825  0.31314595     0.10100
Br1231     Br  0.52780126  0.21534572  0.43124793    -0.05500
Br1232     Br  0.46889356  0.09771191  0.52153806    -0.02400
Br1233     Br  0.45727636  0.18170043  0.31436082     0.00400
Br1234     Br  0.53214168  0.13628310  0.39199569    -0.04000
C1235       C  0.59202165  0.39846631  0.16402195    -0.11400
C1236       C  0.58226996  0.38488040  0.12851395     0.04100
C1237       C  0.56642660  0.35680532  0.12771854    -0.11900
C1238       C  0.56013658  0.34159151  0.16171979     0.19000
C1239       C  0.56957752  0.35511110  0.19721486    -0.08900
C1240       C  0.58490406  0.38324690  0.19818239    -0.01900
H1241       H  0.55954732  0.34668408  0.10018105     0.05500
C1242       C  0.54680637  0.31182989  0.15885162     0.20900
H1243       H  0.59257967  0.39319345  0.22563719     0.10700
C1244       C  0.56107868  0.30089747  0.14112307    -0.15300
C1245       C  0.55035184  0.27313673  0.13893863     0.03700
C1246       C  0.52443736  0.25529524  0.15473923    -0.10600
C1247       C  0.50989587  0.26635867  0.17187694    -0.00600
C1248       C  0.52072520  0.29429259  0.17363753    -0.05800
H1249       H  0.58109760  0.31416009  0.12961606     0.06700
H1250       H  0.48996968  0.25326567  0.18375625     0.10100
Br1251     Br  0.56452356  0.33600382  0.24461762    -0.05500
Br1252     Br  0.58968991  0.40347887  0.08008698    -0.02400
Br1253     Br  0.57353679  0.26167152  0.11621566     0.00400
Br1254     Br  0.49888195  0.30756264  0.19533145    -0.04000
C1255       C  0.47432981  0.06091778  0.21099541    -0.11400
C1256       C  0.46210057  0.03628207  0.19102288     0.04100
C1257       C  0.45077693  0.01209898  0.21170511    -0.11900
C1258       C  0.45075807  0.01188751  0.25234982     0.19000
C1259       C  0.46462964  0.03651053  0.27212533    -0.08900
C1260       C  0.47645161  0.06064722  0.25143822    -0.01900
H1261       H  0.44067691  0.99330031  0.19607234     0.05500
C1262       C  0.43346044  0.98621589  0.27328758     0.20900
H1263       H  0.48579371  0.07934140  0.26737921     0.10700
C1264       C  0.44471178  0.97558810  0.29865465    -0.15300
C1265       C  0.42838142  0.95112979  0.31810532     0.03700
C1266       C  0.40014009  0.93658708  0.31178005    -0.10600
C1267       C  0.38913619  0.94808964  0.28744166    -0.00600
C1268       C  0.40530409  0.97235797  0.26844958    -0.05800
H1269       H  0.46632129  0.98623526  0.30304198     0.06700
H1270       H  0.36761756  0.93794354  0.28237032     0.10100
Br1271     Br  0.46563425  0.03846745  0.32746675    -0.05500
Br1272     Br  0.46023228  0.03449387  0.13574083    -0.02400
Br1273     Br  0.44619629  0.93884583  0.35193005     0.00400
Br1274     Br  0.38749455  0.98580887  0.23661332    -0.04000
C1275       C  0.39577863  0.12430535  0.13911799    -0.11400
C1276       C  0.37498727  0.09722285  0.13672413     0.04100
C1277       C  0.35144843  0.09033917  0.11627499    -0.11900
C1278       C  0.34817269  0.10991897  0.09730297     0.19000
C1279       C  0.36805989  0.13715810  0.10196749    -0.08900
C1280       C  0.39154925  0.14412284  0.12288838    -0.01900
H1281       H  0.33590431  0.06938354  0.11405886     0.05500
C1282       C  0.32424591  0.10110742  0.07210163     0.20900
H1283       H  0.40736187  0.16501638  0.12421742     0.10700
C1284       C  0.30506562  0.10856580  0.08097028    -0.15300
C1285       C  0.28090900  0.09809958  0.06023946     0.03700
C1286       C  0.27507449  0.07889271  0.03064460    -0.10600
C1287       C  0.29521690  0.07294025  0.02027444    -0.00600
C1288       C  0.31954734  0.08391028  0.04043562    -0.05800
H1289       H  0.30861603  0.12215548  0.10476544     0.06700
H1290       H  0.29168173  0.05875719  0.99735092     0.10100
Br1291     Br  0.36531159  0.16541384  0.07757095    -0.05500
Br1292     Br  0.37770777  0.06872414  0.16051809    -0.02400
Br1293     Br  0.25728871  0.11139656  0.07387463     0.00400
Br1294     Br  0.34564998  0.07451829  0.02359899    -0.04000
C1295       C  0.86724313  0.26638068  0.61627250    -0.11400
C1296       C  0.85164328  0.23803968  0.61837211     0.04100
C1297       C  0.86135420  0.22238870  0.60131897    -0.11900
C1298       C  0.88635447  0.23440439  0.58194723     0.19000
C1299       C  0.90176026  0.26249389  0.57964279    -0.08900
C1300       C  0.89225019  0.27807787  0.59661204    -0.01900
H1301       H  0.84942815  0.20073207  0.60333736     0.05500
C1302       C  0.89735258  0.21786531  0.56660824     0.20900
H1303       H  0.90482961  0.29968001  0.59455166     0.10700
C1304       C  0.90023486  0.21608879  0.52650547    -0.15300
C1305       C  0.91513916  0.20487048  0.51155823     0.03700
C1306       C  0.92718470  0.19507224  0.53694135    -0.10600
C1307       C  0.92301005  0.19557819  0.57685127    -0.00600
C1308       C  0.90833966  0.20689261  0.59177977    -0.05800
H1309       H  0.89214349  0.22479006  0.50691582     0.06700
H1310       H  0.93214242  0.18805312  0.59662834     0.10100
Br1311     Br  0.93660437  0.28071108  0.55497373    -0.05500
Br1312     Br  0.81673985  0.21927922  0.64267244    -0.02400
Br1313     Br  0.92108807  0.20615412  0.45686124     0.00400
Br1314     Br  0.90615666  0.20929309  0.64685013    -0.04000
C1315       C  0.80295096  0.40014730  0.66914529    -0.11400
C1316       C  0.81905816  0.42774059  0.67781438     0.04100
C1317       C  0.80740735  0.44401352  0.67843800    -0.11900
C1318       C  0.77981193  0.43313826  0.67107129     0.19000
C1319       C  0.76364414  0.40549418  0.66370575    -0.08900
C1320       C  0.77526758  0.38937388  0.66248191    -0.01900
H1321       H  0.81999266  0.46530366  0.68392164     0.05500
C1322       C  0.76815418  0.45078300  0.66885715     0.20900
H1323       H  0.76247090  0.36816006  0.65656370     0.10700
C1324       C  0.75914611  0.45419260  0.63301762    -0.15300
C1325       C  0.74442184  0.46731605  0.63012908     0.03700
C1326       C  0.73860382  0.47754835  0.66368583    -0.10600
C1327       C  0.74943786  0.47586146  0.69914956    -0.00600
C1328       C  0.76398956  0.46246101  0.70195334    -0.05800
H1329       H  0.76276864  0.44571005  0.60732355     0.06700
H1330       H  0.74528099  0.48360731  0.72517259     0.10100
Br1331     Br  0.72539951  0.38865696  0.65587137    -0.05500
Br1332     Br  0.85720150  0.44469198  0.68643672    -0.02400
Br1333     Br  0.73297124  0.47046532  0.57941009     0.00400
Br1334     Br  0.77577381  0.45866401  0.75196319    -0.04000
C1335       C  0.59124016  0.19093514  0.67904482    -0.11400
C1336       C  0.60853088  0.21509076  0.69930060     0.04100
C1337       C  0.63663551  0.22632942  0.69747078    -0.11900
C1338       C  0.64838735  0.21415235  0.67621217     0.19000
C1339       C  0.63139266  0.18944750  0.65797804    -0.08900
C1340       C  0.60324624  0.17824634  0.65913593    -0.01900
H1341       H  0.64951611  0.24519061  0.71195787     0.05500
C1342       C  0.67833540  0.22845635  0.67181322     0.20900
H1343       H  0.59073124  0.15952725  0.64414842     0.10700
C1344       C  0.69463624  0.23234799  0.70404751    -0.15300
C1345       C  0.72295438  0.24787939  0.70145128     0.03700
C1346       C  0.73553818  0.25992815  0.66591553    -0.10600
C1347       C  0.71906441  0.25569992  0.63372138    -0.00600
C1348       C  0.69088169  0.24037469  0.63644033    -0.05800
H1349       H  0.68523250  0.22383681  0.73164222     0.06700
H1350       H  0.72814914  0.26500431  0.60632976     0.10100
Br1351     Br  0.64579341  0.17010796  0.63165569    -0.05500
Br1352     Br  0.59609054  0.23501835  0.72898755    -0.02400
Br1353     Br  0.74293381  0.25394543  0.74828196     0.00400
Br1354     Br  0.67039417  0.23821220  0.59165846    -0.04000
C1355       C  0.93728439  0.40167201  0.69236920    -0.11400
C1356       C  0.95782917  0.39530166  0.68573434     0.04100
C1357       C  0.98207205  0.40867832  0.70644949    -0.11900
C1358       C  0.98655280  0.42847362  0.73376751     0.19000
C1359       C  0.96675819  0.43564249  0.73928834    -0.08900
C1360       C  0.94253021  0.42236797  0.71879383    -0.01900
H1361       H  0.99738862  0.40324316  0.70175196     0.05500
C1362       C  0.01199177  0.44140993  0.75620582     0.20900
H1363       H  0.92730809  0.42776145  0.72461111     0.10700
C1364       C  0.03233767  0.46744277  0.74661607    -0.15300
C1365       C  0.05718659  0.47983741  0.76573680     0.03700
C1366       C  0.06236899  0.46580686  0.79486190    -0.10600
C1367       C  0.04123271  0.44014088  0.80563615    -0.00600
C1368       C  0.01627511  0.42804667  0.78676139    -0.05800
H1369       H  0.02891692  0.47812689  0.72379270     0.06700
H1370       H  0.04429489  0.42897420  0.82807762     0.10100
Br1371     Br  0.97134298  0.46243000  0.77621042    -0.05500
Br1372     Br  0.95392109  0.36756419  0.65100493    -0.02400
Br1373     Br  0.08251127  0.51608591  0.75054461     0.00400
Br1374     Br  0.98847732  0.39328655  0.80374859    -0.04000
C1375       C  0.85258831  0.34645158  0.00654577    -0.11400
C1376       C  0.83566553  0.35117622  0.98237855     0.04100
C1377       C  0.83438744  0.34557440  0.94296878    -0.11900
C1378       C  0.84920213  0.33471492  0.92683952     0.19000
C1379       C  0.86654747  0.33051653  0.95049971    -0.08900
C1380       C  0.86827445  0.33655774  0.98992883    -0.01900
H1381       H  0.82156544  0.34953498  0.92474919     0.05500
C1382       C  0.84699815  0.32910990  0.88493987     0.20900
H1383       H  0.88105814  0.33239818  0.00789397     0.10700
C1384       C  0.86963427  0.34430168  0.86133649    -0.15300
C1385       C  0.86764763  0.34182701  0.82124383     0.03700
C1386       C  0.84269962  0.32385441  0.80416204    -0.10600
C1387       C  0.82027366  0.30784931  0.82764316    -0.00600
C1388       C  0.82220195  0.31048750  0.86786371    -0.05800
H1389       H  0.88870244  0.35879273  0.87410775     0.06700
H1390       H  0.80096262  0.29424850  0.81465125     0.10100
Br1391     Br  0.88695986  0.31503979  0.93079470    -0.05500
Br1392     Br  0.81391730  0.36555657  0.00055108    -0.02400
Br1393     Br  0.89947558  0.36383161  0.79090146     0.00400
Br1394     Br  0.79029929  0.28876418  0.89810762    -0.04000
C1395       C  0.83932800  0.34288365  0.50944209    -0.11400
C1396       C  0.86294581  0.35468429  0.48598318     0.04100
C1397       C  0.86070196  0.35233875  0.44570167    -0.11900
C1398       C  0.83541633  0.33846069  0.42798024     0.19000
C1399       C  0.81196574  0.32704701  0.45088270    -0.08900
C1400       C  0.81400729  0.32936383  0.49106045    -0.01900
H1401       H  0.87881389  0.36143881  0.42801273     0.05500
C1402       C  0.83391391  0.33674514  0.38543879     0.20900
H1403       H  0.79554029  0.31999568  0.50793163     0.10700
C1404       C  0.83406698  0.31535003  0.36646940    -0.15300
C1405       C  0.83382990  0.31386166  0.32600723     0.03700
C1406       C  0.83353766  0.33426919  0.30383103    -0.10600
C1407       C  0.83266617  0.35525927  0.32340494    -0.00600
C1408       C  0.83288868  0.35660882  0.36365423    -0.05800
H1409       H  0.83480289  0.29996672  0.38325474     0.06700
H1410       H  0.83213657  0.37102323  0.30736321     0.10100
Br1411     Br  0.77672801  0.30787247  0.42838342    -0.05500
Br1412     Br  0.89896607  0.37465012  0.50601133    -0.02400
Br1413     Br  0.83547999  0.28427310  0.30360133     0.00400
Br1414     Br  0.83227169  0.38624976  0.38775485    -0.04000
C1415       C  0.92854255  0.20253495  0.04236630    -0.11400
C1416       C  0.92290996  0.22039657  0.02229484     0.04100
C1417       C  0.90872816  0.23117117  0.04089776    -0.11900
C1418       C  0.89999230  0.22448700  0.07932229     0.19000
C1419       C  0.90436291  0.20577932  0.09871926    -0.08900
C1420       C  0.91831855  0.19483936  0.08022592    -0.01900
H1421       H  0.90533709  0.24551339  0.02586256     0.05500
C1422       C  0.88948231  0.23973606  0.10002401     0.20900
H1423       H  0.92233360  0.18128925  0.09638699     0.10700
C1424       C  0.86162620  0.23012895  0.10174791    -0.15300
C1425       C  0.85174965  0.24572737  0.11839860     0.03700
C1426       C  0.86999208  0.27129447  0.13355963    -0.10600
C1427       C  0.89771823  0.28012138  0.13329375    -0.00600
C1428       C  0.90749263  0.26462752  0.11675227    -0.05800
H1429       H  0.84768164  0.21095195  0.08893151     0.06700
H1430       H  0.91199983  0.29972945  0.14463384     0.10100
Br1431     Br  0.89334791  0.19612608  0.15145533    -0.05500
Br1432     Br  0.93380802  0.23096393  0.96970048    -0.02400
Br1433     Br  0.81368189  0.23243594  0.11593767     0.00400
Br1434     Br  0.94580445  0.27887195  0.11592628    -0.04000
C1435       C  0.81860267  0.41837875  0.15272451    -0.11400
C1436       C  0.80823597  0.42391431  0.11926887     0.04100
C1437       C  0.79535416  0.43890743  0.12218024    -0.11900
C1438       C  0.79259565  0.44881225  0.15782667     0.19000
C1439       C  0.80445382  0.44495827  0.19072597    -0.08900
C1440       C  0.81753312  0.43008867  0.18791961    -0.01900
H1441       H  0.78637217  0.44190264  0.09668943     0.05500
C1442       C  0.77361468  0.45898444  0.16081504     0.20900
H1443       H  0.82530017  0.42622232  0.21398262     0.10700
C1444       C  0.74604199  0.44045040  0.15700100    -0.15300
C1445       C  0.72692141  0.44855500  0.15860743     0.03700
C1446       C  0.73527846  0.47594474  0.16418185    -0.10600
C1447       C  0.76299271  0.49451394  0.16858419    -0.00600
C1448       C  0.78215417  0.48625814  0.16651305    -0.05800
H1449       H  0.73933836  0.41941910  0.15279548     0.06700
H1450       H  0.76983841  0.51558540  0.17250695     0.10100
Br1451     Br  0.80085876  0.45716394  0.24078168    -0.05500
Br1452     Br  0.81044533  0.41154664  0.06866704    -0.02400
Br1453     Br  0.68971070  0.42069582  0.15464506     0.00400
Br1454     Br  0.81970042  0.51290963  0.16967285    -0.04000
C1455       C  0.74171750  0.27741819  0.14834867    -0.11400
C1456       C  0.72429281  0.28728626  0.13906947     0.04100
C1457       C  0.69633817  0.26996288  0.13947518    -0.11900
C1458       C  0.68513734  0.24290389  0.14918782     0.19000
C1459       C  0.70225226  0.23288730  0.15801788    -0.08900
C1460       C  0.73027498  0.25011415  0.15773742    -0.01900
H1461       H  0.68317919  0.27775856  0.13289909     0.05500
C1462       C  0.65547741  0.22572411  0.15074116     0.20900
H1463       H  0.74314966  0.24205614  0.16462581     0.10700
C1464       C  0.64097475  0.21715602  0.11621631    -0.15300
C1465       C  0.61272669  0.20223143  0.11659068     0.03700
C1466       C  0.59854360  0.19562350  0.15216973    -0.10600
C1467       C  0.61327822  0.20383688  0.18669831    -0.00600
C1468       C  0.64146511  0.21902182  0.18617537    -0.05800
H1469       H  0.65169453  0.22232387  0.08887944     0.06700
H1470       H  0.60282756  0.19943411  0.21421510     0.10100
Br1471     Br  0.68813101  0.19575884  0.17007489    -0.05500
Br1472     Br  0.73670127  0.32435667  0.12799650    -0.02400
Br1473     Br  0.59494290  0.19099221  0.06760901     0.00400
Br1474     Br  0.65992185  0.23164906  0.23440537    -0.04000
C1475       C  0.06534248  0.46391244  0.30367086    -0.11400
C1476       C  0.04136784  0.44034090  0.31526387     0.04100
C1477       C  0.01777014  0.43087782  0.29338922    -0.11900
C1478       C  0.01737009  0.44427701  0.25988513     0.19000
C1479       C  0.04051374  0.46863309  0.24987149    -0.08900
C1480       C  0.06388701  0.47841650  0.27199154    -0.01900
H1481       H  0.99974650  0.41249320  0.30198467     0.05500
C1482       C  0.99282089  0.43232248  0.23549898     0.20900
H1483       H  0.08158507  0.49678711  0.26258794     0.10700
C1484       C  0.97797584  0.44541964  0.23194183    -0.15300
C1485       C  0.95393631  0.43389542  0.21086686     0.03700
C1486       C  0.94407231  0.40854257  0.19335501    -0.10600
C1487       C  0.95975980  0.39619109  0.19517923    -0.00600
C1488       C  0.98390621  0.40784482  0.21596081    -0.05800
H1489       H  0.98496790  0.46456851  0.24603975     0.06700
H1490       H  0.95265622  0.37679700  0.18179446     0.10100
Br1491     Br  0.04217875  0.48801240  0.20404695    -0.05500
Br1492     Br  0.03903869  0.41964231  0.35990084    -0.02400
Br1493     Br  0.93591462  0.45406808  0.20591715     0.00400
Br1494     Br  0.00404188  0.38958853  0.21674806    -0.04000
loop_ 
_geom_bond_atom_site_label_1 
_geom_bond_atom_site_label_2 
_geom_bond_distance 
_geom_bond_site_symmetry_2 
_ccdc_geom_bond_type 
Zn1           O5   1.951       .  S
Zn1           O6   2.033       .  S
Zn1          O10   2.034       .  S
Zn1          O17   1.981       .  S
Zn2           O5   1.946       .  S
Zn2           O7   2.033       .  S
Zn2           O9   2.015       .  S
Zn2          O13   1.999       .  S
Zn3           O5   1.935       .  S
Zn3           O8   1.991       .  S
Zn3          O11   2.007       .  S
Zn3          O14   1.992       .  S
Zn4           O5   1.979       .  S
Zn4          O12   2.038       .  S
Zn4          O15   2.046       .  S
Zn4          O16   2.057       .  S
O6           C18   1.275       .  A
O7           C19   1.275       .  A
O8           C20   1.270       .  A
O9           C18   1.273       .  A
O10          C20   1.277       .  A
O11          C19   1.271       .  A
O12          C21   1.276       .  A
O13          C22   1.274       .  A
O14          C21   1.269       .  A
O15          C22   1.277       .  A
O16          C23   1.278       .  A
O17          C23   1.270       .  A
C18        C1486   1.484       .  S
C19        C1435   1.488       .  S
C20        C1375   1.482       .  S
C21        C1455   1.485       .  S
C22        C1406   1.490       .  S
C23        C1426   1.478       .  S
Zn24         O28   1.935       .  S
Zn24         O29   2.008       .  S
Zn24         O33   2.017       .  S
Zn24         O40   2.016       .  S
Zn25         O28   1.942       .  S
Zn25         O30   1.981       .  S
Zn25         O32   2.020       .  S
Zn25         O36   2.006       .  S
Zn26         O28   1.973       .  S
Zn26         O31   2.055       .  S
Zn26         O34   2.042       .  S
Zn26         O37   2.065       .  S
Zn27         O28   1.946       .  S
Zn27         O35   1.981       .  S
Zn27         O38   2.048       .  S
Zn27         O39   2.028       .  S
O29          C41   1.274       .  A
O30          C42   1.271       .  A
O31          C43   1.277       .  A
O32          C41   1.273       .  A
O33          C43   1.274       .  A
O34          C42   1.277       .  A
O35          C44   1.271       .  A
O36          C45   1.272       .  A
O37          C44   1.279       .  A
O38          C45   1.275       .  A
O39          C46   1.275       .  A
O40          C46   1.276       .  A
C41        C1315   1.479       .  S
C42        C1386   1.465       .  S
C43        C1346   1.492       .  S
C44        C1295   1.493       .  S
C45        C1355   1.496       .  S
C46        C1395   1.493       .  S
Zn47         O51   1.940       .  S
Zn47         O52   2.019       .  S
Zn47         O56   2.016       .  S
Zn47         O63   1.988       .  S
Zn48         O51   1.938       .  S
Zn48         O53   2.011       .  S
Zn48         O55   2.009       .  S
Zn48         O59   2.015       .  S
Zn49         O51   1.952       .  S
Zn49         O54   2.047       .  S
Zn49         O57   2.033       .  S
Zn49         O60   2.002       .  S
Zn50         O51   1.968       .  S
Zn50         O58   2.054       .  S
Zn50         O61   2.060       .  S
Zn50         O62   2.059       .  S
O52          C64   1.275       .  A
O53          C65   1.275       .  A
O54          C66   1.277       .  A
O55          C64   1.272       .  A
O56          C66   1.273       .  A
O57          C65   1.276       .  A
O58          C67   1.279       .  A
O59          C68   1.273       .  A
O60          C67   1.273       .  A
O61          C68   1.279       .  A
O62          C69   1.279       .  A
O63          C69   1.273       .  A
C64        C1466   1.480       .  S
C65        C1195   1.478       .  S
C66        C1255   1.487       .  S
C67        C1275   1.482       .  S
C68        C1246   1.496       .  S
C69        C1226   1.495       .  S
Zn70         O74   1.940       .  S
Zn70         O75   2.011       .  S
Zn70         O79   2.004       .  S
Zn70         O86   1.994       .  S
Zn71         O74   1.974       .  S
Zn71         O76   2.056       .  S
Zn71         O78   2.065       .  S
Zn71         O82   2.056       .  S
Zn72         O74   1.953       .  S
Zn72         O77   2.033       .  S
Zn72         O80   1.984       .  S
Zn72         O83   2.043       .  S
Zn73         O74   1.948       .  S
Zn73         O81   2.025       .  S
Zn73         O84   2.002       .  S
Zn73         O85   2.016       .  S
O75          C87   1.270       .  A
O76          C88   1.279       .  A
O77          C89   1.275       .  A
O78          C87   1.279       .  A
O79          C89   1.272       .  A
O80          C88   1.271       .  A
O81          C90   1.273       .  A
O82          C91   1.279       .  A
O83          C90   1.277       .  A
O84          C91   1.273       .  A
O85          C92   1.273       .  A
O86          C92   1.272       .  A
C87        C1335   1.502       .  S
C88        C1166   1.480       .  S
C89        C1206   1.476       .  S
C90        C1175   1.498       .  S
C91        C1215   1.481       .  S
C92        C1135   1.484       .  S
Zn93         O97   1.941       .  S
Zn93         O98   2.026       .  S
Zn93        O102   1.993       .  S
Zn93        O109   2.036       .  S
Zn94         O97   1.924       .  S
Zn94         O99   1.997       .  S
Zn94        O101   1.992       .  S
Zn94        O105   2.023       .  S
Zn95         O97   1.976       .  S
Zn95        O100   2.075       .  S
Zn95        O103   2.048       .  S
Zn95        O106   2.050       .  S
Zn96         O97   1.941       .  S
Zn96        O104   1.984       .  S
Zn96        O107   2.052       .  S
Zn96        O108   2.025       .  S
O98         C110   1.275       .  A
O99         C111   1.271       .  A
O100        C112   1.279       .  A
O101        C110   1.273       .  A
O102        C112   1.272       .  A
O103        C111   1.277       .  A
O104        C113   1.274       .  A
O105        C114   1.274       .  A
O106        C113   1.280       .  A
O107        C114   1.277       .  A
O108        C115   1.272       .  A
O109        C115   1.277       .  A
C110       C1055   1.484       .  S
C111       C1446   1.484       .  S
C112       C1126   1.498       .  S
C113       C1075   1.477       .  S
C114       C1235   1.490       .  S
C115       C1106   1.500       .  S
Zn116       O120   1.929       .  S
Zn116       O121   2.002       .  S
Zn116       O125   2.004       .  S
Zn116       O132   1.980       .  S
Zn117       O120   1.937       .  S
Zn117       O122   2.002       .  S
Zn117       O124   2.004       .  S
Zn117       O128   2.001       .  S
Zn118       O120   1.948       .  S
Zn118       O123   2.035       .  S
Zn118       O126   2.022       .  S
Zn118       O129   1.994       .  S
Zn119       O120   1.966       .  S
Zn119       O127   2.027       .  S
Zn119       O130   2.035       .  S
Zn119       O131   2.043       .  S
O121        C133   1.271       .  A
O122        C134   1.273       .  A
O123        C135   1.276       .  A
O124        C133   1.273       .  A
O125        C135   1.270       .  A
O126        C134   1.274       .  A
O127        C136   1.275       .  A
O128        C137   1.272       .  A
O129        C136   1.271       .  A
O130        C137   1.276       .  A
O131        C138   1.276       .  A
O132        C138   1.272       .  A
C133       C1146   1.482       .  S
C134       C1086   1.477       .  S
C135       C1015   1.494       .  S
C136       C1046   1.463       .  S
C137       C1326   1.482       .  S
C138       C1066   1.488       .  S
Zn139       O143   1.938       .  S
Zn139       O144   1.995       .  S
Zn139       O148   2.014       .  S
Zn139       O155   2.014       .  S
Zn140       O143   1.984       .  S
Zn140       O145   2.075       .  S
Zn140       O147   2.045       .  S
Zn140       O151   2.058       .  S
Zn141       O143   1.933       .  S
Zn141       O146   1.993       .  S
Zn141       O149   1.975       .  S
Zn141       O152   1.998       .  S
Zn142       O143   1.949       .  S
Zn142       O150   2.021       .  S
Zn142       O153   1.995       .  S
Zn142       O154   2.033       .  S
O144        C156   1.272       .  A
O145        C157   1.278       .  A
O146        C158   1.270       .  A
O147        C156   1.277       .  A
O148        C158   1.273       .  A
O149        C157   1.270       .  A
O150        C159   1.272       .  A
O151        C160   1.279       .  A
O152        C159   1.272       .  A
O153        C160   1.274       .  A
O154        C161   1.274       .  A
O155        C161   1.274       .  A
C156        C995   1.480       .  S
C157       C1266   1.499       .  S
C158        C935   1.469       .  S
C159        C966   1.486       .  S
C160        C915   1.496       .  S
C161        C975   1.495       .  S
Zn162       O166   1.948       .  S
Zn162       O167   2.016       .  S
Zn162       O171   1.986       .  S
Zn162       O178   2.041       .  S
Zn163       O166   1.941       .  S
Zn163       O168   2.023       .  S
Zn163       O170   2.006       .  S
Zn163       O174   2.028       .  S
Zn164       O166   1.981       .  S
Zn164       O169   2.080       .  S
Zn164       O172   2.058       .  S
Zn164       O175   2.059       .  S
Zn165       O166   1.935       .  S
Zn165       O173   1.977       .  S
Zn165       O176   2.020       .  S
Zn165       O177   1.997       .  S
O167        C179   1.275       .  A
O168        C180   1.276       .  A
O169        C181   1.280       .  A
O170        C179   1.274       .  A
O171        C181   1.271       .  A
O172        C180   1.278       .  A
O173        C182   1.272       .  A
O174        C183   1.274       .  A
O175        C182   1.279       .  A
O176        C183   1.273       .  A
O177        C184   1.268       .  A
O178        C184   1.276       .  A
C179        C946   1.471       .  S
C180        C875   1.501       .  S
C181        C866   1.502       .  S
C182        C926   1.486       .  S
C183        C906   1.482       .  S
C184       C1155   1.495       .  S
Zn185       O189   1.954       .  S
Zn185       O190   2.045       .  S
Zn185       O194   2.042       .  S
Zn185       O201   1.988       .  S
Zn186       O189   1.937       .  S
Zn186       O191   2.019       .  S
Zn186       O193   2.003       .  S
Zn186       O197   1.992       .  S
Zn187       O189   1.935       .  S
Zn187       O192   2.007       .  S
Zn187       O195   2.021       .  S
Zn187       O198   1.998       .  S
Zn188       O189   1.978       .  S
Zn188       O196   2.053       .  S
Zn188       O199   2.053       .  S
Zn188       O200   2.055       .  S
O190        C202   1.275       .  A
O191        C203   1.273       .  A
O192        C204   1.273       .  A
O193        C202   1.272       .  A
O194        C204   1.277       .  A
O195        C203   1.275       .  A
O196        C205   1.277       .  A
O197        C206   1.272       .  A
O198        C205   1.272       .  A
O199        C206   1.278       .  A
O200        C207   1.278       .  A
O201        C207   1.272       .  A
C202       C1475   1.498       .  S
C203        C986   1.485       .  S
C204        C786   1.480       .  S
C205        C815   1.483       .  S
C206        C795   1.478       .  S
C207        C846   1.477       .  S
Zn208       O212   1.956       .  S
Zn208       O213   2.005       .  S
Zn208       O217   2.043       .  S
Zn208       O224   2.032       .  S
Zn209       O212   1.978       .  S
Zn209       O214   2.052       .  S
Zn209       O216   2.064       .  S
Zn209       O220   2.043       .  S
Zn210       O212   1.948       .  S
Zn210       O215   2.018       .  S
Zn210       O218   2.004       .  S
Zn210       O221   2.059       .  S
Zn211       O212   1.934       .  S
Zn211       O219   2.017       .  S
Zn211       O222   2.000       .  S
Zn211       O223   1.995       .  S
O213        C225   1.272       .  A
O214        C226   1.280       .  A
O215        C227   1.273       .  A
O216        C225   1.278       .  A
O217        C227   1.277       .  A
O218        C226   1.274       .  A
O219        C228   1.274       .  A
O220        C229   1.277       .  A
O221        C228   1.277       .  A
O222        C229   1.270       .  A
O223        C230   1.271       .  A
O224        C230   1.277       .  A
C225        C766   1.486       .  S
C226        C775   1.487       .  S
C227       C1366   1.497       .  S
C228        C886   1.496       .  S
C229        C746   1.492       .  S
C230        C806   1.484       .  S
Zn231       O235   1.932       .  S
Zn231       O236   2.006       .  S
Zn231       O240   2.023       .  S
Zn231       O247   2.005       .  S
Zn232       O235   1.952       .  S
Zn232       O237   2.039       .  S
Zn232       O239   2.032       .  S
Zn232       O243   1.991       .  S
Zn233       O235   1.938       .  S
Zn233       O238   2.016       .  S
Zn233       O241   2.001       .  S
Zn233       O244   1.991       .  S
Zn234       O235   1.974       .  S
Zn234       O242   2.049       .  S
Zn234       O245   2.066       .  S
Zn234       O246   2.049       .  S
O236        C248   1.274       .  A
O237        C249   1.277       .  A
O238        C250   1.273       .  A
O239        C248   1.276       .  A
O240        C250   1.275       .  A
O241        C249   1.270       .  A
O242        C251   1.279       .  A
O243        C252   1.270       .  A
O244        C251   1.272       .  A
O245        C252   1.280       .  A
O246        C253   1.277       .  A
O247        C253   1.271       .  A
C248        C695   1.483       .  S
C249        C726   1.483       .  S
C250       C1006   1.479       .  S
C251        C675   1.485       .  S
C252       C1095   1.486       .  S
C253        C826   1.490       .  S
Zn254       O258   1.952       .  S
Zn254       O259   1.991       .  S
Zn254       O263   2.037       .  S
Zn254       O270   2.035       .  S
Zn255       O258   1.975       .  S
Zn255       O260   2.051       .  S
Zn255       O262   2.056       .  S
Zn255       O266   2.050       .  S
Zn256       O258   1.946       .  S
Zn256       O261   2.021       .  S
Zn256       O264   2.002       .  S
Zn256       O267   2.047       .  S
Zn257       O258   1.926       .  S
Zn257       O265   2.009       .  S
Zn257       O268   1.989       .  S
Zn257       O269   1.994       .  S
O259        C271   1.270       .  A
O260        C272   1.279       .  A
O261        C273   1.274       .  A
O262        C271   1.277       .  A
O263        C273   1.276       .  A
O264        C272   1.275       .  A
O265        C274   1.273       .  A
O266        C275   1.275       .  A
O267        C274   1.277       .  A
O268        C275   1.271       .  A
O269        C276   1.271       .  A
O270        C276   1.276       .  A
C271       C1026   1.471       .  S
C272        C706   1.489       .  S
C273        C655   1.491       .  S
C274        C895   1.483       .  S
C275        C735   1.495       .  S
C276        C686   1.477       .  S
Zn277       O281   1.938       .  S
Zn277       O282   2.012       .  S
Zn277       O286   2.017       .  S
Zn277       O293   2.013   1_545  S
Zn278       O281   1.948       .  S
Zn278       O283   2.039       .  S
Zn278       O285   2.016       .  S
Zn278       O289   2.002   1_545  S
Zn279       O281   1.941   1_554  S
Zn279       O284   2.025       .  S
Zn279       O287   2.012       .  S
Zn279       O290   1.996       .  S
Zn280       O281   1.966   1_564  S
Zn280       O288   2.041       .  S
Zn280       O291   2.051   1_554  S
Zn280       O292   2.038       .  S
O282        C294   1.276       .  A
O283        C295   1.277   1_556  A
O284        C296   1.274   1_554  A
O285        C294   1.274       .  A
O286        C296   1.273       .  A
O287        C295   1.271       .  A
O288        C297   1.277       .  A
O289        C298   1.272       .  A
O290        C297   1.274   1_545  A
O291        C298   1.277       .  A
O292        C299   1.275   1_554  A
O293        C299   1.274       .  A
C294        C586   1.481       .  S
C295       C1286   1.494       .  S
C296        C635   1.473       .  S
C297        C595   1.485       .  S
C298        C855   1.480       .  S
C299        C615   1.495       .  S
Zn300       O304   1.928       .  S
Zn300       O305   1.996   1_565  S
Zn300       O309   1.987       .  S
Zn300       O316   1.999       .  S
Zn301       O304   1.971   1_545  S
Zn301       O306   2.066       .  S
Zn301       O308   2.051       .  S
Zn301       O312   2.053       .  S
Zn302       O304   1.951       .  S
Zn302       O307   2.026       .  S
Zn302       O310   1.998   1_565  S
Zn302       O313   2.025       .  S
Zn303       O304   1.945       .  S
Zn303       O311   2.013       .  S
Zn303       O314   1.997       .  S
Zn303       O315   2.029       .  S
O305        C317   1.270       .  A
O306        C318   1.279       .  A
O307        C319   1.274       .  A
O308        C317   1.276       .  A
O309        C319   1.273       .  A
O310        C318   1.272       .  A
O311        C320   1.273       .  A
O312        C321   1.279       .  A
O313        C320   1.273       .  A
O314        C321   1.274   1_565  A
O315        C322   1.275       .  A
O316        C322   1.269       .  A
C317        C555   1.480       .  S
C318       C1186   1.481       .  S
C319        C575   1.481       .  S
C320        C955   1.494       .  S
C321        C606   1.493       .  S
C322        C546   1.489       .  S
Zn323       O327   1.940   1_556  S
Zn323       O328   2.009       .  S
Zn323       O332   1.996   1_655  S
Zn323       O339   1.998       .  S
Zn324       O327   1.939       .  S
Zn324       O329   1.976       .  S
Zn324       O331   2.019       .  S
Zn324       O335   2.000       .  S
Zn325       O327   1.981   1_455  S
Zn325       O330   2.046       .  S
Zn325       O333   2.071       .  S
Zn325       O336   2.069       .  S
Zn326       O327   1.952   1_556  S
Zn326       O334   1.996   1_655  S
Zn326       O337   2.035   1_556  S
Zn326       O338   2.017       .  S
O328        C340   1.270   1_556  A
O329        C341   1.271   1_655  A
O330        C342   1.277   1_554  A
O331        C340   1.273       .  A
O332        C342   1.271       .  A
O333        C341   1.280       .  A
O334        C343   1.271       .  A
O335        C344   1.272       .  A
O336        C343   1.279   1_554  A
O337        C344   1.275       .  A
O338        C345   1.274       .  A
O339        C345   1.272       .  A
C340        C526   1.489       .  S
C341        C495   1.495       .  S
C342        C646   1.486       .  S
C343        C755   1.477       .  S
C344       C1415   1.488       .  S
C345        C486   1.466       .  S
Zn346       O350   1.947       .  S
Zn346       O351   2.020       .  S
Zn346       O355   2.023       .  S
Zn346       O362   2.035   1_655  S
Zn347       O350   1.971       .  S
Zn347       O352   2.052       .  S
Zn347       O354   2.030       .  S
Zn347       O358   2.047       .  S
Zn348       O350   1.941   1_455  S
Zn348       O353   2.004       .  S
Zn348       O356   1.997   1_455  S
Zn348       O359   2.028       .  S
Zn349       O350   1.937   1_455  S
Zn349       O357   1.999       .  S
Zn349       O360   1.988       .  S
Zn349       O361   2.015       .  S
O351        C363   1.276       .  A
O352        C364   1.276       .  A
O353        C365   1.273       .  A
O354        C363   1.275       .  A
O355        C365   1.276   1_655  A
O356        C364   1.271       .  A
O357        C366   1.272       .  A
O358        C367   1.277       .  A
O359        C366   1.273       .  A
O360        C367   1.272   1_455  A
O361        C368   1.273       .  A
O362        C368   1.275       .  A
C363        C466   1.492       .  S
C364       C1306   1.476       .  S
C365        C475   1.476       .  S
C366        C835   1.492       .  S
C367        C506   1.484       .  S
C368        C566   1.488       .  S
Zn369       O373   1.925       .  S
Zn369       O374   2.007       .  S
Zn369       O378   2.014       .  S
Zn369       O385   2.003       .  S
Zn370       O373   1.971   1_556  S
Zn370       O375   2.092   1_556  S
Zn370       O377   2.062       .  S
Zn370       O381   2.064       .  S
Zn371       O373   1.932       .  S
Zn371       O376   2.024       .  S
Zn371       O379   1.970       .  S
Zn371       O382   2.035       .  S
Zn372       O373   1.933   1_556  S
Zn372       O380   2.025       .  S
Zn372       O383   1.994       .  S
Zn372       O384   2.029       .  S
O374        C386   1.271       .  A
O375        C387   1.282       .  A
O376        C388   1.277       .  A
O377        C386   1.280   1_556  A
O378        C388   1.275       .  A
O379        C387   1.270       .  A
O380        C389   1.273       .  A
O381        C390   1.282       .  A
O382        C389   1.276   1_554  A
O383        C390   1.273       .  A
O384        C391   1.276   1_556  A
O385        C391   1.270       .  A
C386        C626   1.500       .  S
C387       C1115   1.501       .  S
C388        C446   1.480       .  S
C389        C666   1.497       .  S
C390        C415   1.478       .  S
C391        C515   1.491       .  S
Zn392       O396   1.947       .  S
Zn392       O397   1.983       .  S
Zn392       O401   2.020       .  S
Zn392       O408   2.025       .  S
Zn393       O396   1.974       .  S
Zn393       O398   2.067       .  S
Zn393       O400   2.054       .  S
Zn393       O404   2.030       .  S
Zn394       O396   1.935       .  S
Zn394       O399   1.994       .  S
Zn394       O402   1.986       .  S
Zn394       O405   2.004       .  S
Zn395       O396   1.942       .  S
Zn395       O403   2.010       .  S
Zn395       O406   2.009       .  S
Zn395       O407   2.014       .  S
O397        C409   1.270       .  A
O398        C410   1.280       .  A
O399        C411   1.271       .  A
O400        C409   1.278       .  A
O401        C411   1.273       .  A
O402        C410   1.270       .  A
O403        C412   1.270       .  A
O404        C413   1.276       .  A
O405        C412   1.272       .  A
O406        C413   1.272       .  A
O407        C414   1.274       .  A
O408        C414   1.274       .  A
C409        C715   1.469       .  S
C410        C426   1.489       .  S
C411       C1035   1.488       .  S
C412        C535   1.490       .  S
C413        C455   1.492       .  S
C414        C435   1.472       .  S
C415        C416   1.411       .  A
C415        C420   1.403       .  A
C416        C417   1.399       .  A
C416       Br432   1.921       .  S
C417        C418   1.403       .  A
C417        H421   1.083       .  S
C418        C422   1.485       .  S
C418        C419   1.411       .  A
C419        C420   1.403       .  A
C419       Br431   1.918       .  S
C420        H423   1.082       .  S
C422        C424   1.399       .  A
C422        C428   1.411       .  A
C424        C425   1.397       .  A
C424        H429   1.083       .  S
C425        C426   1.419       .  A
C425       Br433   1.924       .  S
C426        C427   1.407       .  A
C427        C428   1.405       .  A
C427        H430   1.082       .  S
C428       Br434   1.919       .  S
C435        C436   1.409       .  A
C435        C440   1.401       .  A
C436        C437   1.401       .  A
C436       Br452   1.920       .  S
C437        C438   1.405       .  A
C437        H441   1.084       .  S
C438        C442   1.484       .  S
C438        C439   1.411       .  A
C439        C440   1.398       .  A
C439       Br451   1.920       .  S
C440        H443   1.084       .  S
C442        C444   1.405       .  A
C442        C448   1.409       .  A
C444        C445   1.399       .  A
C444        H449   1.083       .  S
C445        C446   1.411       .  A
C445       Br453   1.921       .  S
C446        C447   1.406       .  A
C447        C448   1.400       .  A
C447        H450   1.083       .  S
C448       Br454   1.919       .  S
C455        C456   1.421       .  A
C455        C460   1.411       .  A
C456        C457   1.397       .  A
C456       Br472   1.922       .  S
C457        C458   1.398       .  A
C457        H461   1.083       .  S
C458        C462   1.478   1_565  S
C458        C459   1.405       .  A
C459        C460   1.401       .  A
C459       Br471   1.918       .  S
C460        H463   1.082       .  S
C462        C464   1.400       .  A
C462        C468   1.405       .  A
C464        C465   1.401       .  A
C464        H469   1.084       .  S
C465        C466   1.420       .  A
C465       Br473   1.922       .  S
C466        C467   1.410       .  A
C467        C468   1.398       .  A
C467        H470   1.084       .  S
C468       Br474   1.920       .  S
C475        C476   1.415   1_455  A
C475        C480   1.404       .  A
C476        C477   1.397       .  A
C476       Br492   1.921       .  S
C477        C478   1.399   1_655  A
C477        H481   1.083       .  S
C478        C482   1.474   1_455  S
C478        C479   1.407       .  A
C479        C480   1.399       .  A
C479       Br491   1.919       .  S
C480        H483   1.083       .  S
C482        C484   1.403       .  A
C482        C488   1.407   1_655  A
C484        C485   1.397       .  A
C484        H489   1.083       .  S
C485        C486   1.406       .  A
C485       Br493   1.917       .  S
C486        C487   1.403   1_655  A
C487        C488   1.398       .  A
C487        H490   1.084       .  S
C488       Br494   1.918       .  S
C495        C496   1.417       .  A
C495        C500   1.413   1_455  A
C496        C497   1.405       .  A
C496       Br512   1.919       .  S
C497        C498   1.404   1_455  A
C497        H501   1.084       .  S
C498        C502   1.478       .  S
C498        C499   1.401       .  A
C499        C500   1.394       .  A
C499       Br511   1.920       .  S
C500        H503   1.083       .  S
C502        C504   1.404       .  A
C502        C508   1.403   1_655  A
C504        C505   1.403       .  A
C504        H509   1.084       .  S
C505        C506   1.415       .  A
C505       Br513   1.920       .  S
C506        C507   1.408   1_655  A
C507        C508   1.395       .  A
C507        H510   1.084       .  S
C508       Br514   1.919       .  S
C515        C516   1.421       .  A
C515        C520   1.409   1_554  A
C516        C517   1.397       .  A
C516       Br532   1.923       .  S
C517        C518   1.399       .  A
C517        H521   1.084       .  S
C518        C522   1.480   1_565  S
C518        C519   1.406   1_554  A
C519        C520   1.400       .  A
C519       Br531   1.918       .  S
C520        H523   1.083       .  S
C522        C524   1.401   1_554  A
C522        C528   1.406       .  A
C524        C525   1.399       .  A
C524        H529   1.083       .  S
C525        C526   1.418   1_556  A
C525       Br533   1.921       .  S
C526        C527   1.409       .  A
C527        C528   1.399       .  A
C527        H530   1.082       .  S
C528       Br534   1.919       .  S
C535        C536   1.419       .  A
C535        C540   1.410       .  A
C536        C537   1.397       .  A
C536       Br552   1.923       .  S
C537        C538   1.401       .  A
C537        H541   1.083       .  S
C538        C542   1.480   1_655  S
C538        C539   1.406       .  A
C539        C540   1.398       .  A
C539       Br551   1.919       .  S
C540        H543   1.083       .  S
C542        C544   1.401       .  A
C542        C548   1.407       .  A
C544        C545   1.398       .  A
C544        H549   1.083       .  S
C545        C546   1.420       .  A
C545       Br553   1.924       .  S
C546        C547   1.408       .  A
C547        C548   1.398       .  A
C547        H550   1.083       .  S
C548       Br554   1.920       .  S
C555        C556   1.413       .  A
C555        C560   1.406       .  A
C556        C557   1.397       .  A
C556       Br572   1.922       .  S
C557        C558   1.400       .  A
C557        H561   1.084       .  S
C558        C562   1.480       .  S
C558        C559   1.408       .  A
C559        C560   1.405       .  A
C559       Br571   1.916       .  S
C560        H563   1.083       .  S
C562        C564   1.402       .  A
C562        C568   1.405       .  A
C564        C565   1.402       .  A
C564        H569   1.082       .  S
C565        C566   1.415       .  A
C565       Br573   1.921       .  S
C566        C567   1.408       .  A
C567        C568   1.400       .  A
C567        H570   1.082       .  S
C568       Br574   1.918       .  S
C575        C576   1.415       .  A
C575        C580   1.407   1_565  A
C576        C577   1.403       .  A
C576       Br592   1.920       .  S
C577        C578   1.403   1_565  A
C577        H581   1.082       .  S
C578        C582   1.471       .  S
C578        C579   1.401       .  A
C579        C580   1.391       .  A
C579       Br591   1.920       .  S
C580        H583   1.082       .  S
C582        C584   1.401       .  A
C582        C588   1.403   1_545  A
C584        C585   1.402       .  A
C584        H589   1.083       .  S
C585        C586   1.415       .  A
C585       Br593   1.920       .  S
C586        C587   1.407   1_545  A
C587        C588   1.393       .  A
C587        H590   1.082       .  S
C588       Br594   1.920       .  S
C595        C596   1.415       .  A
C595        C600   1.408   1_565  A
C596        C597   1.403       .  A
C596       Br612   1.921       .  S
C597        C598   1.403       .  A
C597        H601   1.082       .  S
C598        C602   1.477       .  S
C598        C599   1.403   1_565  A
C599        C600   1.395       .  A
C599       Br611   1.919       .  S
C600        H603   1.083       .  S
C602        C604   1.402   1_565  A
C602        C608   1.402       .  A
C604        C605   1.402       .  A
C604        H609   1.083       .  S
C605        C606   1.418       .  A
C605       Br613   1.921       .  S
C606        C607   1.412   1_545  A
C607        C608   1.397       .  A
C607        H610   1.083       .  S
C608       Br614   1.920       .  S
C615        C616   1.419   1_556  A
C615        C620   1.410       .  A
C616        C617   1.403       .  A
C616       Br632   1.922       .  S
C617        C618   1.402   1_554  A
C617        H621   1.083       .  S
C618        C622   1.485   1_455  S
C618        C619   1.407       .  A
C619        C620   1.401       .  A
C619       Br631   1.919       .  S
C620        H623   1.083       .  S
C622        C624   1.398   1_556  A
C622        C628   1.407       .  A
C624        C625   1.399       .  A
C624        H629   1.084       .  S
C625        C626   1.423       .  A
C625       Br633   1.923       .  S
C626        C627   1.412   1_554  A
C627        C628   1.405       .  A
C627        H630   1.082       .  S
C628       Br634   1.918       .  S
C635        C636   1.408       .  A
C635        C640   1.403       .  A
C636        C637   1.402       .  A
C636       Br652   1.917       .  S
C637        C638   1.403       .  A
C637        H641   1.083       .  S
C638        C642   1.477       .  S
C638        C639   1.407       .  A
C639        C640   1.397       .  A
C639       Br651   1.920   1_556  S
C640        H643   1.083   1_556  S
C642        C644   1.399       .  A
C642        C648   1.406   1_556  A
C644        C645   1.398       .  A
C644        H649   1.083       .  S
C645        C646   1.417       .  A
C645       Br653   1.923       .  S
C646        C647   1.408   1_556  A
C647        C648   1.402       .  A
C647        H650   1.083       .  S
C648       Br654   1.917       .  S
C655        C656   1.418       .  A
C655        C660   1.409       .  A
C656        C657   1.403       .  A
C656       Br672   1.922       .  S
C657        C658   1.401       .  A
C657        H661   1.084       .  S
C658        C662   1.484       .  S
C658        C659   1.406       .  A
C659        C660   1.402       .  A
C659       Br671   1.918       .  S
C660        H663   1.084       .  S
C662        C664   1.399       .  A
C662        C668   1.407       .  A
C664        C665   1.402       .  A
C664        H669   1.083       .  S
C665        C666   1.422       .  A
C665       Br673   1.924       .  S
C666        C667   1.410       .  A
C667        C668   1.403       .  A
C667        H670   1.082   1_556  S
C668       Br674   1.918       .  S
C675        C676   1.417       .  A
C675        C680   1.408       .  A
C676        C677   1.396       .  A
C676       Br692   1.923       .  S
C677        C678   1.398       .  A
C677        H681   1.084       .  S
C678        C682   1.477       .  S
C678        C679   1.407       .  A
C679        C680   1.402       .  A
C679       Br691   1.918       .  S
C680        H683   1.083       .  S
C682        C684   1.399       .  A
C682        C688   1.409       .  A
C684        C685   1.398       .  A
C684        H689   1.084       .  S
C685        C686   1.416       .  A
C685       Br693   1.923       .  S
C686        C687   1.402       .  A
C687        C688   1.400       .  A
C687        H690   1.084       .  S
C688       Br694   1.918       .  S
C695        C696   1.413       .  A
C695        C700   1.408       .  A
C696        C697   1.403       .  A
C696       Br712   1.919       .  S
C697        C698   1.404       .  A
C697        H701   1.083       .  S
C698        C702   1.478       .  S
C698        C699   1.404       .  A
C699        C700   1.397       .  A
C699       Br711   1.919       .  S
C700        H703   1.083       .  S
C702        C704   1.403       .  A
C702        C708   1.404       .  A
C704        C705   1.405       .  A
C704        H709   1.083       .  S
C705        C706   1.417   1_554  A
C705       Br713   1.920   1_554  S
C706        C707   1.408   1_556  A
C707        C708   1.395       .  A
C707        H710   1.083   1_554  S
C708       Br714   1.920       .  S
C715        C716   1.407       .  A
C715        C720   1.404       .  A
C716        C717   1.398       .  A
C716       Br732   1.918       .  S
C717        C718   1.404       .  A
C717        H721   1.084       .  S
C718        C722   1.481       .  S
C718        C719   1.409       .  A
C719        C720   1.401       .  A
C719       Br731   1.919       .  S
C720        H723   1.084       .  S
C722        C724   1.401       .  A
C722        C728   1.409       .  A
C724        C725   1.401       .  A
C724        H729   1.083       .  S
C725        C726   1.415       .  A
C725       Br733   1.916       .  S
C726        C727   1.404       .  A
C727        C728   1.398       .  A
C727        H730   1.083       .  S
C728       Br734   1.920       .  S
C735        C736   1.420       .  A
C735        C740   1.411       .  A
C736        C737   1.405       .  A
C736       Br752   1.921       .  S
C737        C738   1.402       .  A
C737        H741   1.084       .  S
C738        C742   1.478       .  S
C738        C739   1.403       .  A
C739        C740   1.394       .  A
C739       Br751   1.921       .  S
C740        H743   1.084       .  S
C742        C744   1.398       .  A
C742        C748   1.405       .  A
C744        C745   1.398       .  A
C744        H749   1.083       .  S
C745        C746   1.421       .  A
C745       Br753   1.924       .  S
C746        C747   1.410       .  A
C747        C748   1.402       .  A
C747        H750   1.082       .  S
C748       Br754   1.918       .  S
C755        C756   1.411       .  A
C755        C760   1.402       .  A
C756        C757   1.404       .  A
C756       Br772   1.919       .  S
C757        C758   1.403       .  A
C757        H761   1.082       .  S
C758        C762   1.488       .  S
C758        C759   1.411       .  A
C759        C760   1.403       .  A
C759       Br771   1.919       .  S
C760        H763   1.082   1_556  S
C762        C764   1.402       .  A
C762        C768   1.410       .  A
C764        C765   1.399       .  A
C764        H769   1.083       .  S
C765        C766   1.412       .  A
C765       Br773   1.921       .  S
C766        C767   1.408       .  A
C767        C768   1.408       .  A
C767        H770   1.083       .  S
C768       Br774   1.917       .  S
C775        C776   1.416       .  A
C775        C780   1.408       .  A
C776        C777   1.398       .  A
C776       Br792   1.921       .  S
C777        C778   1.399       .  A
C777        H781   1.083       .  S
C778        C782   1.480       .  S
C778        C779   1.407       .  A
C779        C780   1.404       .  A
C779       Br791   1.917       .  S
C780        H783   1.082       .  S
C782        C784   1.400       .  A
C782        C788   1.409       .  A
C784        C785   1.400       .  A
C784        H789   1.082       .  S
C785        C786   1.414       .  A
C785       Br793   1.922       .  S
C786        C787   1.404       .  A
C787        C788   1.402       .  A
C787        H790   1.082       .  S
C788       Br794   1.918       .  S
C795        C796   1.413       .  A
C795        C800   1.403       .  A
C796        C797   1.395       .  A
C796       Br812   1.917       .  S
C797        C798   1.398       .  A
C797        H801   1.083       .  S
C798        C802   1.478       .  S
C798        C799   1.410       .  A
C799        C800   1.403       .  A
C799       Br811   1.918       .  S
C800        H803   1.082       .  S
C802        C804   1.401       .  A
C802        C808   1.406       .  A
C804        C805   1.398       .  A
C804        H809   1.084       .  S
C805        C806   1.416   1_554  A
C805       Br813   1.923   1_554  S
C806        C807   1.407   1_556  A
C807        C808   1.399       .  A
C807        H810   1.084   1_554  S
C808       Br814   1.918       .  S
C815        C816   1.413       .  A
C815        C820   1.407       .  A
C816        C817   1.404       .  A
C816       Br832   1.920       .  S
C817        C818   1.404       .  A
C817        H821   1.082       .  S
C818        C822   1.482       .  S
C818        C819   1.406       .  A
C819        C820   1.399       .  A
C819       Br831   1.919       .  S
C820        H823   1.083       .  S
C822        C824   1.399       .  A
C822        C828   1.407       .  A
C824        C825   1.399       .  A
C824        H829   1.085       .  S
C825        C826   1.419       .  A
C825       Br833   1.924       .  S
C826        C827   1.408       .  A
C827        C828   1.404       .  A
C827        H830   1.084       .  S
C828       Br834   1.917       .  S
C835        C836   1.418       .  A
C835        C840   1.412       .  A
C836        C837   1.401       .  A
C836       Br852   1.922       .  S
C837        C838   1.402       .  A
C837        H841   1.084       .  S
C838        C842   1.478       .  S
C838        C839   1.402       .  A
C839        C840   1.397       .  A
C839       Br851   1.918       .  S
C840        H843   1.083       .  S
C842        C844   1.404       .  A
C842        C848   1.406       .  A
C844        C845   1.404       .  A
C844        H849   1.084       .  S
C845        C846   1.412       .  A
C845       Br853   1.918       .  S
C846        C847   1.404       .  A
C847        C848   1.395       .  A
C847        H850   1.084       .  S
C848       Br854   1.920       .  S
C855        C856   1.408       .  A
C855        C860   1.406       .  A
C856        C857   1.404       .  A
C856       Br872   1.918   1_556  S
C857        C858   1.407       .  A
C857        H861   1.082       .  S
C858        C862   1.486       .  S
C858        C859   1.408       .  A
C859        C860   1.400       .  A
C859       Br871   1.919       .  S
C860        H863   1.083       .  S
C862        C864   1.406       .  A
C862        C868   1.404       .  A
C864        C865   1.410       .  A
C864        H869   1.084       .  S
C865        C866   1.419       .  A
C865       Br873   1.919       .  S
C866        C867   1.413       .  A
C867        C868   1.394       .  A
C867        H870   1.083       .  S
C868       Br874   1.922       .  S
C875        C876   1.419       .  A
C875        C880   1.410       .  A
C876        C877   1.408       .  A
C876       Br892   1.920       .  S
C877        C878   1.405       .  A
C877        H881   1.082       .  S
C878        C882   1.492       .  S
C878        C879   1.409       .  A
C879        C880   1.400       .  A
C879       Br891   1.921       .  S
C880        H883   1.082       .  S
C882        C884   1.404       .  A
C882        C888   1.409       .  A
C884        C885   1.406       .  A
C884        H889   1.083       .  S
C885        C886   1.416       .  A
C885       Br893   1.919       .  S
C886        C887   1.409       .  A
C887        C888   1.402       .  A
C887        H890   1.083       .  S
C888       Br894   1.920       .  S
C895        C896   1.413       .  A
C895        C900   1.407       .  A
C896        C897   1.396       .  A
C896       Br912   1.922       .  S
C897        C898   1.401       .  A
C897        H901   1.083       .  S
C898        C902   1.482       .  S
C898        C899   1.409       .  A
C899        C900   1.406       .  A
C899       Br911   1.917       .  S
C900        H903   1.083       .  S
C902        C904   1.403       .  A
C902        C908   1.408       .  A
C904        C905   1.402       .  A
C904        H909   1.083       .  S
C905        C906   1.412       .  A
C905       Br913   1.920       .  S
C906        C907   1.405       .  A
C907        C908   1.400       .  A
C907        H910   1.083       .  S
C908       Br914   1.919       .  S
C915        C916   1.418       .  A
C915        C920   1.413       .  A
C916        C917   1.403       .  A
C916       Br932   1.921       .  S
C917        C918   1.403       .  A
C917        H921   1.083       .  S
C918        C922   1.479       .  S
C918        C919   1.402       .  A
C919        C920   1.396       .  A
C919       Br931   1.920       .  S
C920        H923   1.082       .  S
C922        C924   1.404       .  A
C922        C928   1.404       .  A
C924        C925   1.405       .  A
C924        H929   1.083       .  S
C925        C926   1.415       .  A
C925       Br933   1.920       .  S
C926        C927   1.409       .  A
C927        C928   1.394       .  A
C927        H930   1.083       .  S
C928       Br934   1.920       .  S
C935        C936   1.407       .  A
C935        C940   1.404       .  A
C936        C937   1.398       .  A
C936       Br952   1.919       .  S
C937        C938   1.405       .  A
C937        H941   1.082       .  S
C938        C942   1.478       .  S
C938        C939   1.408       .  A
C939        C940   1.396       .  A
C939       Br951   1.920       .  S
C940        H943   1.083       .  S
C942        C944   1.403       .  A
C942        C948   1.409       .  A
C944        C945   1.398       .  A
C944        H949   1.083       .  S
C945        C946   1.411   1_554  A
C945       Br953   1.921   1_554  S
C946        C947   1.402   1_556  A
C947        C948   1.397       .  A
C947        H950   1.083   1_554  S
C948       Br954   1.920       .  S
C955        C956   1.420       .  A
C955        C960   1.413       .  A
C956        C957   1.399       .  A
C956       Br972   1.923       .  S
C957        C958   1.400       .  A
C957        H961   1.083       .  S
C958        C962   1.476       .  S
C958        C959   1.402       .  A
C959        C960   1.399       .  A
C959       Br971   1.918       .  S
C960        H963   1.082       .  S
C962        C964   1.401       .  A
C962        C968   1.404       .  A
C964        C965   1.403       .  A
C964        H969   1.083       .  S
C965        C966   1.417       .  A
C965       Br973   1.921       .  S
C966        C967   1.407       .  A
C967        C968   1.394       .  A
C967        H970   1.083       .  S
C968       Br974   1.920       .  S
C975        C976   1.420       .  A
C975        C980   1.411       .  A
C976        C977   1.403       .  A
C976       Br992   1.922       .  S
C977        C978   1.401       .  A
C977        H981   1.083       .  S
C978        C982   1.482       .  S
C978        C979   1.406       .  A
C979        C980   1.398       .  A
C979       Br991   1.921       .  S
C980        H983   1.082       .  S
C982        C984   1.403       .  A
C982        C988   1.408       .  A
C984        C985   1.402       .  A
C984        H989   1.083       .  S
C985        C986   1.415       .  A
C985       Br993   1.921       .  S
C986        C987   1.406       .  A
C987        C988   1.398       .  A
C987        H990   1.083       .  S
C988       Br994   1.920       .  S
C995        C996   1.413       .  A
C995       C1000   1.406       .  A
C996        C997   1.395       .  A
C996      Br1012   1.922       .  S
C997        C998   1.400       .  A
C997       H1001   1.083       .  S
C998       C1002   1.480       .  S
C998        C999   1.410       .  A
C999       C1000   1.403       .  A
C999      Br1011   1.918       .  S
C1000      H1003   1.082       .  S
C1002      C1004   1.402       .  A
C1002      C1008   1.410       .  A
C1004      C1005   1.403       .  A
C1004      H1009   1.082       .  S
C1005      C1006   1.413       .  A
C1005     Br1013   1.915       .  S
C1006      C1007   1.402       .  A
C1007      C1008   1.395       .  A
C1007      H1010   1.083       .  S
C1008     Br1014   1.921       .  S
C1015      C1016   1.422       .  A
C1015      C1020   1.409       .  A
C1016      C1017   1.401       .  A
C1016     Br1032   1.923       .  S
C1017      C1018   1.398       .  A
C1017      H1021   1.084       .  S
C1018      C1022   1.481       .  S
C1018      C1019   1.407       .  A
C1019      C1020   1.400       .  A
C1019     Br1031   1.919       .  S
C1020      H1023   1.084       .  S
C1022      C1024   1.405       .  A
C1022      C1028   1.407       .  A
C1024      C1025   1.401       .  A
C1024      H1029   1.083       .  S
C1025      C1026   1.405       .  A
C1025     Br1033   1.917       .  S
C1026      C1027   1.405       .  A
C1027      C1028   1.401       .  A
C1027      H1030   1.083       .  S
C1028     Br1034   1.919       .  S
C1035      C1036   1.418       .  A
C1035      C1040   1.412       .  A
C1036      C1037   1.399       .  A
C1036     Br1052   1.922       .  S
C1037      C1038   1.400       .  A
C1037      H1041   1.084       .  S
C1038      C1042   1.471       .  S
C1038      C1039   1.401       .  A
C1039      C1040   1.395       .  A
C1039     Br1051   1.918       .  S
C1040      H1043   1.083       .  S
C1042      C1044   1.400       .  A
C1042      C1048   1.408       .  A
C1044      C1045   1.398       .  A
C1044      H1049   1.083       .  S
C1045      C1046   1.408       .  A
C1045     Br1053   1.919       .  S
C1046      C1047   1.400       .  A
C1047      C1048   1.397       .  A
C1047      H1050   1.083       .  S
C1048     Br1054   1.919       .  S
C1055      C1056   1.418       .  A
C1055      C1060   1.408   1_554  A
C1056      C1057   1.401   1_554  A
C1056     Br1072   1.921       .  S
C1057      C1058   1.400       .  A
C1057      H1061   1.083       .  S
C1058      C1062   1.471       .  S
C1058      C1059   1.403       .  A
C1059      C1060   1.394       .  A
C1059     Br1071   1.919       .  S
C1060      H1063   1.083   1_556  S
C1062      C1064   1.402       .  A
C1062      C1068   1.400       .  A
C1064      C1065   1.404       .  A
C1064      H1069   1.085       .  S
C1065      C1066   1.417       .  A
C1065     Br1073   1.920       .  S
C1066      C1067   1.411       .  A
C1067      C1068   1.391       .  A
C1067      H1070   1.084       .  S
C1068     Br1074   1.920       .  S
C1075      C1076   1.410       .  A
C1075      C1080   1.407       .  A
C1076      C1077   1.403       .  A
C1076     Br1092   1.918       .  S
C1077      C1078   1.404       .  A
C1077      H1081   1.083       .  S
C1078      C1082   1.472       .  S
C1078      C1079   1.402       .  A
C1079      C1080   1.392       .  A
C1079     Br1091   1.919       .  S
C1080      H1083   1.082       .  S
C1082      C1084   1.400       .  A
C1082      C1088   1.406       .  A
C1084      C1085   1.399       .  A
C1084      H1089   1.083       .  S
C1085      C1086   1.414       .  A
C1085     Br1093   1.921       .  S
C1086      C1087   1.406       .  A
C1087      C1088   1.397       .  A
C1087      H1090   1.083       .  S
C1088     Br1094   1.919       .  S
C1095      C1096   1.416       .  A
C1095      C1100   1.406       .  A
C1096      C1097   1.400       .  A
C1096     Br1112   1.923       .  S
C1097      C1098   1.402       .  A
C1097      H1101   1.082       .  S
C1098      C1102   1.487       .  S
C1098      C1099   1.409       .  A
C1099      C1100   1.405       .  A
C1099     Br1111   1.917       .  S
C1100      H1103   1.082       .  S
C1102      C1104   1.400       .  A
C1102      C1108   1.407       .  A
C1104      C1105   1.403       .  A
C1104      H1109   1.084       .  S
C1105      C1106   1.424       .  A
C1105     Br1113   1.922       .  S
C1106      C1107   1.410       .  A
C1107      C1108   1.401       .  A
C1107      H1110   1.083       .  S
C1108     Br1114   1.919       .  S
C1115      C1116   1.417       .  A
C1115      C1120   1.414       .  A
C1116      C1117   1.411       .  A
C1116     Br1132   1.918   1_554  S
C1117      C1118   1.406       .  A
C1117      H1121   1.084       .  S
C1118      C1122   1.485       .  S
C1118      C1119   1.402       .  A
C1119      C1120   1.394       .  A
C1119     Br1131   1.921       .  S
C1120      H1123   1.083       .  S
C1122      C1124   1.406       .  A
C1122      C1128   1.403       .  A
C1124      C1125   1.409       .  A
C1124      H1129   1.083       .  S
C1125      C1126   1.417       .  A
C1125     Br1133   1.918       .  S
C1126      C1127   1.412       .  A
C1127      C1128   1.396       .  A
C1127      H1130   1.082       .  S
C1128     Br1134   1.920       .  S
C1135      C1136   1.417       .  A
C1135      C1140   1.410       .  A
C1136      C1137   1.399       .  A
C1136     Br1152   1.921       .  S
C1137      C1138   1.399       .  A
C1137      H1141   1.083       .  S
C1138      C1142   1.468       .  S
C1138      C1139   1.402       .  A
C1139      C1140   1.393       .  A
C1139     Br1151   1.920       .  S
C1140      H1143   1.083       .  S
C1142      C1144   1.398       .  A
C1142      C1148   1.403       .  A
C1144      C1145   1.398       .  A
C1144      H1149   1.082       .  S
C1145      C1146   1.418       .  A
C1145     Br1153   1.922       .  S
C1146      C1147   1.408       .  A
C1147      C1148   1.394       .  A
C1147      H1150   1.082       .  S
C1148     Br1154   1.920       .  S
C1155      C1156   1.423       .  A
C1155      C1160   1.409       .  A
C1156      C1157   1.400       .  A
C1156     Br1172   1.924       .  S
C1157      C1158   1.397       .  A
C1157      H1161   1.084       .  S
C1158      C1162   1.481   1_565  S
C1158      C1159   1.407       .  A
C1159      C1160   1.400       .  A
C1159     Br1171   1.920   1_565  S
C1160      H1163   1.083       .  S
C1162      C1164   1.401       .  A
C1162      C1168   1.409       .  A
C1164      C1165   1.396       .  A
C1164      H1169   1.083       .  S
C1165      C1166   1.413       .  A
C1165     Br1173   1.922       .  S
C1166      C1167   1.406       .  A
C1167      C1168   1.404       .  A
C1167      H1170   1.083       .  S
C1168     Br1174   1.917       .  S
C1175      C1176   1.421       .  A
C1175      C1180   1.408       .  A
C1176      C1177   1.405       .  A
C1176     Br1192   1.921       .  S
C1177      C1178   1.402       .  A
C1177      H1181   1.084       .  S
C1178      C1182   1.489       .  S
C1178      C1179   1.409       .  A
C1179      C1180   1.401       .  A
C1179     Br1191   1.920       .  S
C1180      H1183   1.083       .  S
C1182      C1184   1.404       .  A
C1182      C1188   1.410       .  A
C1184      C1185   1.399       .  A
C1184      H1189   1.083       .  S
C1185      C1186   1.410       .  A
C1185     Br1193   1.919       .  S
C1186      C1187   1.406       .  A
C1187      C1188   1.406       .  A
C1187      H1190   1.083       .  S
C1188     Br1194   1.917       .  S
C1195      C1196   1.413   1_554  A
C1195      C1200   1.403   1_554  A
C1196      C1197   1.402       .  A
C1196     Br1212   1.921   1_556  S
C1197      C1198   1.403       .  A
C1197      H1201   1.083       .  S
C1198      C1202   1.483       .  S
C1198      C1199   1.409       .  A
C1199      C1200   1.398       .  A
C1199     Br1211   1.920       .  S
C1200      H1203   1.083   1_556  S
C1202      C1204   1.404       .  A
C1202      C1208   1.409       .  A
C1204      C1205   1.398       .  A
C1204      H1209   1.085       .  S
C1205      C1206   1.409       .  A
C1205     Br1213   1.920       .  S
C1206      C1207   1.405       .  A
C1207      C1208   1.402       .  A
C1207      H1210   1.085       .  S
C1208     Br1214   1.918       .  S
C1215      C1216   1.412       .  A
C1215      C1220   1.406       .  A
C1216      C1217   1.403       .  A
C1216     Br1232   1.919       .  S
C1217      C1218   1.405       .  A
C1217      H1221   1.083       .  S
C1218      C1222   1.483       .  S
C1218      C1219   1.407       .  A
C1219      C1220   1.399       .  A
C1219     Br1231   1.919       .  S
C1220      H1223   1.083       .  S
C1222      C1224   1.405       .  A
C1222      C1228   1.403       .  A
C1224      C1225   1.405       .  A
C1224      H1229   1.083       .  S
C1225      C1226   1.416       .  A
C1225     Br1233   1.920       .  S
C1226      C1227   1.412       .  A
C1227      C1228   1.396       .  A
C1227      H1230   1.083       .  S
C1228     Br1234   1.920       .  S
C1235      C1236   1.415       .  A
C1235      C1240   1.406       .  A
C1236      C1237   1.403       .  A
C1236     Br1252   1.921       .  S
C1237      C1238   1.404       .  A
C1237      H1241   1.084       .  S
C1238      C1242   1.491       .  S
C1238      C1239   1.411       .  A
C1239      C1240   1.405       .  A
C1239     Br1251   1.919       .  S
C1240      H1243   1.084       .  S
C1242      C1244   1.400       .  A
C1242      C1248   1.410       .  A
C1244      C1245   1.400       .  A
C1244      H1249   1.082       .  S
C1245      C1246   1.420       .  A
C1245     Br1253   1.924       .  S
C1246      C1247   1.410       .  A
C1247      C1248   1.408       .  A
C1247      H1250   1.082       .  S
C1248     Br1254   1.918       .  S
C1255      C1256   1.410       .  A
C1255      C1260   1.408       .  A
C1256      C1257   1.404       .  A
C1256     Br1272   1.918       .  S
C1257      C1258   1.408       .  A
C1257      H1261   1.083   1_545  S
C1258      C1262   1.490   1_545  S
C1258      C1259   1.408       .  A
C1259      C1260   1.401       .  A
C1259     Br1271   1.919       .  S
C1260      H1263   1.083       .  S
C1262      C1264   1.408       .  A
C1262      C1268   1.406       .  A
C1264      C1265   1.410       .  A
C1264      H1269   1.082       .  S
C1265      C1266   1.418       .  A
C1265     Br1273   1.919       .  S
C1266      C1267   1.411       .  A
C1267      C1268   1.394       .  A
C1267      H1270   1.082       .  S
C1268     Br1274   1.922       .  S
C1275      C1276   1.412       .  A
C1275      C1280   1.405       .  A
C1276      C1277   1.399       .  A
C1276     Br1292   1.921       .  S
C1277      C1278   1.404       .  A
C1277      H1281   1.085       .  S
C1278      C1282   1.489       .  S
C1278      C1279   1.411       .  A
C1279      C1280   1.404       .  A
C1279     Br1291   1.918       .  S
C1280      H1283   1.084       .  S
C1282      C1284   1.402       .  A
C1282      C1288   1.410       .  A
C1284      C1285   1.403       .  A
C1284      H1289   1.083       .  S
C1285      C1286   1.420       .  A
C1285     Br1293   1.922       .  S
C1286      C1287   1.407       .  A
C1287      C1288   1.399       .  A
C1287      H1290   1.083   1_554  S
C1288     Br1294   1.920       .  S
C1295      C1296   1.417       .  A
C1295      C1300   1.410       .  A
C1296      C1297   1.407       .  A
C1296     Br1312   1.919       .  S
C1297      C1298   1.405       .  A
C1297      H1301   1.083       .  S
C1298      C1302   1.482       .  S
C1298      C1299   1.404       .  A
C1299      C1300   1.394       .  A
C1299     Br1311   1.921       .  S
C1300      H1303   1.083       .  S
C1302      C1304   1.407       .  A
C1302      C1308   1.406       .  A
C1304      C1305   1.404       .  A
C1304      H1309   1.083       .  S
C1305      C1306   1.408       .  A
C1305     Br1313   1.917       .  S
C1306      C1307   1.404       .  A
C1307      C1308   1.397       .  A
C1307      H1310   1.083       .  S
C1308     Br1314   1.920       .  S
C1315      C1316   1.413       .  A
C1315      C1320   1.404       .  A
C1316      C1317   1.403       .  A
C1316     Br1332   1.919       .  S
C1317      C1318   1.403       .  A
C1317      H1321   1.083       .  S
C1318      C1322   1.478       .  S
C1318      C1319   1.407       .  A
C1319      C1320   1.394       .  A
C1319     Br1331   1.921       .  S
C1320      H1323   1.084       .  S
C1322      C1324   1.401       .  A
C1322      C1328   1.407       .  A
C1324      C1325   1.397       .  A
C1324      H1329   1.083       .  S
C1325      C1326   1.414       .  A
C1325     Br1333   1.922       .  S
C1326      C1327   1.407       .  A
C1327      C1328   1.401       .  A
C1327      H1330   1.082       .  S
C1328     Br1334   1.918       .  S
C1335      C1336   1.424       .  A
C1335      C1340   1.410       .  A
C1336      C1337   1.403       .  A
C1336     Br1352   1.925       .  S
C1337      C1338   1.400       .  A
C1337      H1341   1.083       .  S
C1338      C1342   1.491       .  S
C1338      C1339   1.408       .  A
C1339      C1340   1.405       .  A
C1339     Br1351   1.918       .  S
C1340      H1343   1.082       .  S
C1342      C1344   1.405       .  A
C1342      C1348   1.409       .  A
C1344      C1345   1.407       .  A
C1344      H1349   1.083       .  S
C1345      C1346   1.416       .  A
C1345     Br1353   1.921       .  S
C1346      C1347   1.407       .  A
C1347      C1348   1.400       .  A
C1347      H1350   1.083       .  S
C1348     Br1354   1.920       .  S
C1355      C1356   1.419       .  A
C1355      C1360   1.411       .  A
C1356      C1357   1.405       .  A
C1356     Br1372   1.922       .  S
C1357      C1358   1.403       .  A
C1357      H1361   1.084       .  S
C1358      C1362   1.485   1_655  S
C1358      C1359   1.404       .  A
C1359      C1360   1.400       .  A
C1359     Br1371   1.918       .  S
C1360      H1363   1.084       .  S
C1362      C1364   1.400       .  A
C1362      C1368   1.407       .  A
C1364      C1365   1.402       .  A
C1364      H1369   1.083       .  S
C1365      C1366   1.421       .  A
C1365     Br1373   1.922       .  S
C1366      C1367   1.410       .  A
C1367      C1368   1.403       .  A
C1367      H1370   1.083       .  S
C1368     Br1374   1.919   1_455  S
C1375      C1376   1.415   1_554  A
C1375      C1380   1.407   1_554  A
C1376      C1377   1.396       .  A
C1376     Br1392   1.918   1_556  S
C1377      C1378   1.400       .  A
C1377      H1381   1.082       .  S
C1378      C1382   1.478       .  S
C1378      C1379   1.408       .  A
C1379      C1380   1.400       .  A
C1379     Br1391   1.919       .  S
C1380      H1383   1.082   1_556  S
C1382      C1384   1.401       .  A
C1382      C1388   1.412       .  A
C1384      C1385   1.395       .  A
C1384      H1389   1.083       .  S
C1385      C1386   1.409       .  A
C1385     Br1393   1.921       .  S
C1386      C1387   1.400       .  A
C1387      C1388   1.400       .  A
C1387      H1390   1.083       .  S
C1388     Br1394   1.919       .  S
C1395      C1396   1.420       .  A
C1395      C1400   1.411       .  A
C1396      C1397   1.402       .  A
C1396     Br1412   1.922       .  S
C1397      C1398   1.400       .  A
C1397      H1401   1.083       .  S
C1398      C1402   1.477       .  S
C1398      C1399   1.402       .  A
C1399      C1400   1.398       .  A
C1399     Br1411   1.918       .  S
C1400      H1403   1.082       .  S
C1402      C1404   1.402       .  A
C1402      C1408   1.402       .  A
C1404      C1405   1.404       .  A
C1404      H1409   1.083       .  S
C1405      C1406   1.417       .  A
C1405     Br1413   1.920       .  S
C1406      C1407   1.410       .  A
C1407      C1408   1.396       .  A
C1407      H1410   1.083       .  S
C1408     Br1414   1.919       .  S
C1415      C1416   1.414       .  A
C1415      C1420   1.411       .  A
C1416      C1417   1.403       .  A
C1416     Br1432   1.920   1_554  S
C1417      C1418   1.403       .  A
C1417      H1421   1.079       .  S
C1418      C1422   1.477       .  S
C1418      C1419   1.402       .  A
C1419      C1420   1.398       .  A
C1419     Br1431   1.918       .  S
C1420      H1423   1.081       .  S
C1422      C1424   1.404       .  A
C1422      C1428   1.405       .  A
C1424      C1425   1.405       .  A
C1424      H1429   1.082       .  S
C1425      C1426   1.412       .  A
C1425     Br1433   1.918       .  S
C1426      C1427   1.405       .  A
C1427      C1428   1.394       .  A
C1427      H1430   1.083       .  S
C1428     Br1434   1.920       .  S
C1435      C1436   1.416       .  A
C1435      C1440   1.408       .  A
C1436      C1437   1.398       .  A
C1436     Br1452   1.918       .  S
C1437      C1438   1.400       .  A
C1437      H1441   1.084       .  S
C1438      C1442   1.480       .  S
C1438      C1439   1.407       .  A
C1439      C1440   1.401       .  A
C1439     Br1451   1.918       .  S
C1440      H1443   1.083       .  S
C1442      C1444   1.400       .  A
C1442      C1448   1.408       .  A
C1444      C1445   1.395       .  A
C1444      H1449   1.083       .  S
C1445      C1446   1.416       .  A
C1445     Br1453   1.924       .  S
C1446      C1447   1.408       .  A
C1447      C1448   1.405       .  A
C1447      H1450   1.082       .  S
C1448     Br1454   1.917       .  S
C1455      C1456   1.419       .  A
C1455      C1460   1.407       .  A
C1456      C1457   1.398       .  A
C1456     Br1472   1.924       .  S
C1457      C1458   1.399       .  A
C1457      H1461   1.083       .  S
C1458      C1462   1.476       .  S
C1458      C1459   1.406       .  A
C1459      C1460   1.400       .  A
C1459     Br1471   1.918       .  S
C1460      H1463   1.083       .  S
C1462      C1464   1.401       .  A
C1462      C1468   1.406       .  A
C1464      C1465   1.400       .  A
C1464      H1469   1.082       .  S
C1465      C1466   1.415       .  A
C1465     Br1473   1.921       .  S
C1466      C1467   1.406       .  A
C1467      C1468   1.398       .  A
C1467      H1470   1.082       .  S
C1468     Br1474   1.919       .  S
C1475      C1476   1.418       .  A
C1475      C1480   1.412       .  A
C1476      C1477   1.405       .  A
C1476     Br1492   1.921       .  S
C1477      C1478   1.404       .  A
C1477      H1481   1.084   1_455  S
C1478      C1482   1.486   1_455  S
C1478      C1479   1.404       .  A
C1479      C1480   1.398       .  A
C1479     Br1491   1.920       .  S
C1480      H1483   1.083       .  S
C1482      C1484   1.403       .  A
C1482      C1488   1.410       .  A
C1484      C1485   1.402       .  A
C1484      H1489   1.083       .  S
C1485      C1486   1.412       .  A
C1485     Br1493   1.919       .  S
C1486      C1487   1.406       .  A
C1487      C1488   1.401       .  A
C1487      H1490   1.084       .  S
C1488     Br1494   1.920   1_655  S
