geometry optimzed in LAMMPS
_audit_creation_date              2020-11-30 
_audit_creation_method            'lammps2cif' 
_symmetry_space_group_name_H-M    'P1' 
_symmetry_Int_Tables_number       1 
_symmetry_cell_setting            triclinic 
loop_ 
_symmetry_equiv_pos_as_xyz 
  x,y,z 
_cell_length_a                    46.02014701 
_cell_length_b                    45.50685217838202 
_cell_length_c                    42.992466611067535 
_cell_angle_alpha                 90.1554404573215 
_cell_angle_beta                  90.83174071088091 
_cell_angle_gamma                 89.37135534598016 
loop_ 
_atom_site_label 
_atom_site_type_symbol 
_atom_site_fract_x 
_atom_site_fract_y 
_atom_site_fract_z 
_atom_site_charge 
O1          O  0.03042565  0.96307184  0.22769653    -0.73800
O2          O  0.97799408  0.02860896  0.23143790    -0.73800
O3          O  0.03660360  0.02192765  0.23136754    -0.73900
O4          O  0.97226022  0.96970696  0.22709093    -0.73900
O5          O  0.97217151  0.96668219  0.27878214    -0.73900
O6          O  0.03677232  0.01937742  0.28320824    -0.73800
O7          O  0.97817485  0.02576950  0.28311065    -0.73800
O8          O  0.03023181  0.96032255  0.27926394    -0.73900
Ni9        Ni  0.00432270  0.99601432  0.22756552     1.25400
Ni10       Ni  0.00436747  0.99299855  0.28295555     1.25400
C11         C  0.03856255  0.95041989  0.25291980     0.88400
C12         C  0.96905766  0.03774151  0.25791437     0.88300
C13         C  0.04724539  0.02925146  0.25787578     0.88300
C14         C  0.96185079  0.95921440  0.25207029     0.88500
O15         O  0.20419016  0.29000473  0.26439182    -0.80300
O16         O  0.24583948  0.19943415  0.16980428    -0.64900
O17         O  0.23529416  0.24117247  0.24489695    -1.11500
C18         C  0.30832387  0.30305027  0.20914850     1.06600
O19         O  0.29374184  0.20378118  0.16686277    -0.78200
O20         O  0.31253763  0.22371238  0.22373863    -0.65700
Ni21       Ni  0.19694725  0.24890849  0.25968418     1.34900
C22         C  0.30874965  0.23455179  0.25067045     0.85400
O23         O  0.21549306  0.18820415  0.21981445    -0.78700
O24         O  0.18688602  0.20814779  0.25646111    -0.89000
C25         C  0.26977427  0.19291745  0.15752624     0.84900
O26         O  0.17826476  0.25722709  0.22085805    -0.67200
O27         O  0.31865834  0.27902528  0.19850041    -0.86500
C28         C  0.18557358  0.25192299  0.19312692     0.85800
C29         C  0.19522473  0.18666071  0.23959294     1.07300
H30         H  0.25599305  0.26243567  0.17880007     0.39100
O31         O  0.26459028  0.25167401  0.19595349    -1.09100
O32         O  0.29126400  0.25577614  0.25592866    -0.65800
Ni33       Ni  0.25903835  0.27361291  0.23354926     1.26300
O34         O  0.20865773  0.23845394  0.18572045    -0.66000
O35         O  0.28318075  0.30532247  0.22091591    -0.78300
C36         C  0.22549916  0.29977294  0.28002331     0.85200
O37         O  0.25128010  0.29436681  0.27144282    -0.65500
Ni38       Ni  0.30361319  0.24163498  0.18469314     1.27400
Ni39       Ni  0.24011474  0.21975755  0.20749621     1.26100
H40         H  0.24491814  0.23011868  0.26105752     0.39700
O41         O  0.70600438  0.19852373  0.25288630    -0.80300
O42         O  0.80904178  0.24549426  0.16953929    -0.64900
O43         O  0.75678163  0.22945582  0.23535736    -1.11500
C44         C  0.70009013  0.30678675  0.19803356     1.06600
O45         O  0.80004246  0.29329160  0.16335894    -0.78200
O46         O  0.77772135  0.30733238  0.22002216    -0.65700
Ni47       Ni  0.74573195  0.18938206  0.24164533     1.34900
C48         C  0.76376652  0.30444245  0.24501365     0.85400
O49         O  0.81236340  0.21226892  0.21981799    -0.78700
O50         O  0.78444218  0.17487174  0.23396460    -0.89000
C51         C  0.81535916  0.27038874  0.15854839     0.84900
O52         O  0.73417841  0.18264067  0.19923252    -0.67200
O53         O  0.72460528  0.31779524  0.19190194    -0.86500
C54         C  0.74971591  0.18614793  0.17537219     0.85800
C55         C  0.80921662  0.18618778  0.22942878     1.07300
H56         H  0.74374420  0.25372196  0.16755636     0.39100
O57         O  0.75221826  0.26186849  0.18633288    -1.09100
O58         O  0.74238242  0.28677272  0.24669992    -0.65800
Ni59       Ni  0.72693304  0.25511498  0.22063952     1.26300
O60         O  0.77007860  0.20496846  0.17507957    -0.66000
O61         O  0.69702152  0.27999529  0.20466660    -0.78300
C62         C  0.69387008  0.22194295  0.26281239     0.85200
O63         O  0.70252846  0.24711193  0.25493726    -0.65500
Ni64       Ni  0.76194715  0.30234136  0.17915951     1.27400
Ni65       Ni  0.78285647  0.23685369  0.20218969     1.26100
H66         H  0.76511493  0.23683841  0.25456414     0.39700
O67         O  0.80452010  0.70336853  0.16744882    -0.80300
O68         O  0.69710002  0.74808955  0.24061540    -0.64900
O69         O  0.75078932  0.73208085  0.17612996    -1.11500
C70         C  0.80462536  0.80801505  0.22772015     1.06600
O71         O  0.70013248  0.79542921  0.23091577    -0.78200
O72         O  0.74028329  0.82171976  0.19477749    -0.65700
Ni73       Ni  0.76389480  0.69296004  0.16762492     1.34900
C74         C  0.75023885  0.81437216  0.16847619     0.85400
O75         O  0.69582308  0.71080874  0.19181087    -0.78700
O76         O  0.72451600  0.67891549  0.16627640    -0.89000
C77         C  0.68815432  0.77428238  0.24481470     0.84900
O78         O  0.76862269  0.67932621  0.20940142    -0.67200
O79         O  0.78074343  0.81478799  0.24089632    -0.86500
C80         C  0.75548695  0.68601526  0.23422985     0.85800
C81         C  0.69968949  0.68706607  0.17637094     1.07300
H82         H  0.76125399  0.75661271  0.24245684     0.39100
O83         O  0.75232742  0.76502372  0.22400077    -1.09100
O84         O  0.76298139  0.78975082  0.16401549    -0.65800
Ni85       Ni  0.77889722  0.75961313  0.19125304     1.26300
O86         O  0.73834226  0.70806467  0.23623157    -0.66000
O87         O  0.80657830  0.78733755  0.20769950    -0.78300
C88         C  0.81556922  0.72583043  0.15493602     0.85200
O89         O  0.80472036  0.75123769  0.15854081    -0.65500
Ni90       Ni  0.74085854  0.80386703  0.23510826     1.27400
Ni91       Ni  0.72360036  0.73834275  0.20845046     1.26100
H92         H  0.74213586  0.73953531  0.15707596     0.39700
O93         O  0.27565423  0.78938249  0.17114566    -0.80300
O94         O  0.24848161  0.67759469  0.25140374    -0.64900
O95         O  0.25346453  0.73415586  0.18688356    -1.11500
C96         C  0.17809701  0.78071196  0.24439670     1.06600
O97         O  0.20091695  0.67696190  0.24570253    -0.78200
O98         O  0.16925510  0.71486555  0.21232276    -0.65700
Ni99       Ni  0.29021834  0.75005071  0.17696925     1.34900
C100        C  0.17496812  0.72481147  0.18568193     0.85400
O101        O  0.27842789  0.67964793  0.19939086    -0.78700
O102        O  0.30939902  0.71234564  0.18052320    -0.89000
C103        C  0.22433047  0.66542673  0.25581170     0.84900
O104        O  0.29983063  0.76018393  0.21854917    -0.67200
O105        O  0.17430898  0.75619239  0.25797615    -0.86500
C106        C  0.30030641  0.74383233  0.24222445     0.85800
C107        C  0.30245832  0.68610590  0.18730883     1.07300
H108        H  0.23468927  0.74144279  0.25578071     0.39100
O109        O  0.22552336  0.73238947  0.23786385    -1.09100
O110        O  0.19628002  0.74125910  0.18019071    -0.65800
Ni111      Ni  0.22549964  0.76004878  0.20493189     1.26300
O112        O  0.28407153  0.72138986  0.24426231    -0.66000
O113        O  0.19696752  0.78476338  0.22355655    -0.78300
C114        C  0.25074849  0.79992491  0.16427864     0.85200
O115        O  0.22742854  0.78763361  0.17198277    -0.65500
Ni116      Ni  0.18918234  0.71721591  0.25136042     1.27400
Ni117      Ni  0.25221687  0.70569284  0.21926606     1.26100
H118        H  0.24563863  0.72541966  0.16808580     0.39700
O119        O  0.32100903  0.95419195  0.94765072    -0.73800
O120        O  0.30842244  0.02673539  0.99113403    -0.73800
O121        O  0.31122421  0.96916336  0.00740611    -0.73900
O122        O  0.31804550  0.01193977  0.93115514    -0.73900
O123        O  0.27030990  0.00828889  0.92321586    -0.73900
O124        O  0.26344597  0.96584844  0.99878409    -0.73800
O125        O  0.26066408  0.02296209  0.98291285    -0.73800
O126        O  0.27312630  0.95104352  0.93929947    -0.73900
Ni127      Ni  0.31645954  0.99067756  0.96958726     1.25400
Ni128      Ni  0.26524861  0.98690534  0.96069463     1.25400
C129        C  0.29890529  0.94067006  0.93655615     0.88400
C130        C  0.28248114  0.03662047  0.99441273     0.88300
C131        C  0.28605242  0.96044365  0.01548137     0.88300
C132        C  0.29509521  0.01750797  0.91482803     0.88500
O133        O  0.98947845  0.30679645  0.99694630    -0.73800
O134        O  0.04810095  0.30697260  0.93439022    -0.73800
O135        O  0.98937251  0.30753971  0.93386839    -0.73900
O136        O  0.04815005  0.30619761  0.99735588    -0.73900
O137        O  0.04847984  0.25718971  0.99598389    -0.73900
O138        O  0.98959848  0.25848653  0.93297490    -0.73800
O139        O  0.04814857  0.25809092  0.93319696    -0.73800
O140        O  0.98995146  0.25783738  0.99616436    -0.73900
Ni141      Ni  0.01877690  0.30864282  0.96564235     1.25400
Ni142      Ni  0.01902006  0.25615774  0.96454719     1.25400
C143        C  0.98045817  0.28219804  0.00732896     0.88400
C144        C  0.05758866  0.28266411  0.92316923     0.88300
C145        C  0.97993734  0.28320835  0.92298288     0.88300
C146        C  0.05787164  0.28138835  0.00712576     0.88500
O147        O  0.70901942  0.03327408  0.92048949    -0.73800
O148        O  0.71469950  0.97316026  0.98334632    -0.73800
O149        O  0.71282086  0.03335874  0.98377022    -0.73900
O150        O  0.71073231  0.97343259  0.92025977    -0.73900
O151        O  0.75899226  0.97465100  0.91785312    -0.73900
O152        O  0.76100060  0.03433754  0.98119747    -0.73800
O153        O  0.76278138  0.97446151  0.98083830    -0.73800
O154        O  0.75712845  0.03402611  0.91807749    -0.73900
Ni155      Ni  0.71008489  0.00330194  0.95212666     1.25400
Ni156      Ni  0.76163567  0.00442168  0.94946363     1.25400
C157        C  0.73218829  0.04335371  0.90845339     0.88400
C158        C  0.73978744  0.96337586  0.99213814     0.88300
C159        C  0.73721265  0.04406235  0.99276445     0.88300
C160        C  0.73462185  0.96437987  0.90837008     0.88500
O161        O  0.03797924  0.66709899  0.98915093    -0.73800
O162        O  0.97848932  0.67092399  0.92568728    -0.73800
O163        O  0.03721350  0.66595481  0.92609333    -0.73900
O164        O  0.97965410  0.67172516  0.98875788    -0.73900
O165        O  0.98317432  0.72052186  0.98827541    -0.73900
O166        O  0.04016325  0.71476395  0.92530926    -0.73800
O167        O  0.98199993  0.71965236  0.92556025    -0.73800
O168        O  0.04129516  0.71596221  0.98782260    -0.73900
Ni169      Ni  0.00821773  0.66711260  0.95739610     1.25400
Ni170      Ni  0.01177495  0.71942337  0.95667923     1.25400
C171        C  0.04921132  0.69111161  0.99895230     0.88400
C172        C  0.97025129  0.69616199  0.91539610     0.88300
C173        C  0.04808752  0.68946199  0.91525415     0.88300
C174        C  0.97210216  0.69702267  0.99900987     0.88500
O175        O  0.29358690  0.76618022  0.77939162    -0.80300
O176        O  0.26785447  0.71831763  0.64715398    -0.64900
O177        O  0.27566186  0.76945243  0.71717418    -1.11500
C178        C  0.19017395  0.71998884  0.74790622     1.06600
O179        O  0.22288922  0.73344494  0.64379500    -0.78200
O180        O  0.19046449  0.76135887  0.68519701    -0.65700
Ni181      Ni  0.31151193  0.77205753  0.73969818     1.34900
C182        C  0.19749889  0.78411732  0.70045399     0.85400
O183        O  0.30520083  0.76135259  0.66189208    -0.78700
O184        O  0.33248320  0.77845495  0.70187929    -0.89000
C185        C  0.24345701  0.71813236  0.63308649     0.84900
O186        O  0.32232362  0.73153377  0.73946885    -0.67200
O187        O  0.18703721  0.71176145  0.71969412    -0.86500
C188        C  0.31668307  0.71077517  0.72075624     0.85800
C189        C  0.32801486  0.77336154  0.67299580     1.07300
H190        H  0.24717197  0.70826118  0.71166989     0.39100
O191        O  0.24151450  0.72749013  0.70409142    -1.09100
O192        O  0.21835125  0.78386951  0.72020218    -0.65800
Ni193      Ni  0.24315483  0.75364540  0.73834945     1.26300
O194        O  0.29857784  0.71346838  0.69830089    -0.66000
O195        O  0.21046409  0.73651873  0.75808339    -0.78300
C196        C  0.27103935  0.77921207  0.78935037     0.85200
O197        O  0.24779534  0.77950706  0.77308021    -0.65500
Ni198      Ni  0.20579230  0.72256821  0.68213926     1.27400
Ni199      Ni  0.27322668  0.74390991  0.68214563     1.26100
H200        H  0.27088243  0.78907785  0.71011045     0.39700
O201        O  0.98836936  0.96641842  0.71503575    -0.73800
O202        O  0.04755620  0.02441625  0.71402062    -0.73800
O203        O  0.98890418  0.02581611  0.71626686    -0.73900
O204        O  0.04707650  0.96489663  0.71268121    -0.73900
O205        O  0.04479786  0.96575845  0.66094147    -0.73900
O206        O  0.98645121  0.02681292  0.66468284    -0.73800
O207        O  0.04520005  0.02532120  0.66224137    -0.73800
O208        O  0.98582034  0.96753189  0.66318668    -0.73900
Ni209      Ni  0.01811295  0.99533175  0.71632894     1.25400
Ni210      Ni  0.01553312  0.99635935  0.66090131     1.25400
C211        C  0.97698579  0.95791701  0.68927824     0.88400
C212        C  0.05580081  0.03476334  0.68802400     0.88300
C213        C  0.97777233  0.03634333  0.69115134     0.88300
C214        C  0.05557817  0.95520780  0.68625575     0.88500
O215        O  0.30536435  0.19823172  0.76001156    -0.80300
O216        O  0.26178007  0.30249081  0.67407948    -0.64900
O217        O  0.27806633  0.25125023  0.74172665    -1.11500
C218        C  0.20225844  0.19594145  0.69275681     1.06600
O219        O  0.21500355  0.30024356  0.68425236    -0.78200
O220        O  0.18878667  0.26077584  0.72000728    -0.65700
Ni221      Ni  0.31673834  0.23820457  0.75063637     1.34900
C222        C  0.19767356  0.25545040  0.74748937     0.85400
O223        O  0.29740132  0.30575000  0.72283014    -0.78700
O224        O  0.33243346  0.27704592  0.74350747    -0.89000
C225        C  0.23642888  0.31356356  0.67289313     0.84900
O226        O  0.32522914  0.22641251  0.70928834    -0.67200
O227        O  0.19710353  0.21858405  0.67601518    -0.86500
C228        C  0.32023631  0.23963919  0.68385011     0.85800
C229        C  0.32264674  0.30207727  0.73445129     1.07300
H230        H  0.25399203  0.23725695  0.67592954     0.39100
O231        O  0.24551729  0.24745618  0.69338799    -1.09100
O232        O  0.22186856  0.24295938  0.75347317    -0.65800
Ni233      Ni  0.25014781  0.22295600  0.72847735     1.26300
O234        O  0.30169203  0.26062099  0.68134240    -0.66000
O235        O  0.22144128  0.19544382  0.71444974    -0.78300
C236        C  0.28170809  0.18744924  0.76977457     0.85200
O237        O  0.25714495  0.19876441  0.76341138    -0.65500
Ni238      Ni  0.20736749  0.25896655  0.68057456     1.27400
Ni239      Ni  0.27145721  0.27689296  0.70751641     1.26100
H240        H  0.27137064  0.26118802  0.76019337     0.39700
O241        O  0.81216013  0.29844295  0.74915075    -0.80300
O242        O  0.71645340  0.25984984  0.65378092    -0.64900
O243        O  0.76027328  0.27241660  0.72791444    -1.11500
C244        C  0.81631111  0.19083474  0.69019241     1.06600
O245        O  0.71501477  0.21212732  0.66233820    -0.78200
O246        O  0.74492767  0.18546135  0.70866782    -0.65700
Ni247      Ni  0.77298468  0.31112014  0.73869266     1.34900
C248        C  0.75235660  0.19242136  0.73623394     0.85400
O249        O  0.70924158  0.29647498  0.70149111    -0.78700
O250        O  0.73496333  0.32825179  0.73043035    -0.89000
C251        C  0.70522011  0.23506735  0.64877499     0.84900
O252        O  0.78576873  0.32281992  0.69853775    -0.67200
O253        O  0.79384458  0.18451781  0.67380333    -0.86500
C254        C  0.77623260  0.31686871  0.67147788     0.85800
C255        C  0.71179716  0.32082141  0.71591383     1.07300
H256        H  0.77887616  0.24586892  0.66425709     0.39100
O257        O  0.76718694  0.23859796  0.68100362    -1.09100
O258        O  0.76828938  0.21442435  0.74230281    -0.65800
Ni259      Ni  0.78907764  0.24304693  0.71836768     1.26300
O260        O  0.75812441  0.29632169  0.66660098    -0.66000
O261        O  0.81755545  0.21340934  0.70782680    -0.78300
C262        C  0.82202666  0.27473846  0.76108643     0.85200
O263        O  0.81054687  0.25015424  0.75533904    -0.65500
Ni264      Ni  0.75497333  0.20021727  0.66883279     1.27400
Ni265      Ni  0.73806103  0.26742047  0.69073147     1.26100
H266        H  0.74870118  0.26568521  0.74498107     0.39700
O267        O  0.71151568  0.80499710  0.65651765    -0.80300
O268        O  0.81067170  0.75135301  0.74415915    -0.64900
O269        O  0.76191878  0.77320214  0.67558608    -1.11500
C270        C  0.70186366  0.69681289  0.71405395     1.06600
O271        O  0.80563570  0.70392465  0.73457835    -0.78200
O272        O  0.76890547  0.68281124  0.69074807    -0.65700
Ni273      Ni  0.75056517  0.81358555  0.67120773     1.34900
C274        C  0.76230131  0.69238300  0.66386031     0.85400
O275        O  0.81638630  0.78855482  0.69717029    -0.78700
O276        O  0.78871414  0.82732940  0.68336881    -0.89000
C277        C  0.81851109  0.72489946  0.74830470     0.84900
O278        O  0.73697718  0.81789912  0.71277812    -0.67200
O279        O  0.72386192  0.68816081  0.73011174    -0.86500
C280        C  0.75131069  0.81253672  0.73766945     0.85800
C281        C  0.81323658  0.81542057  0.69001714     1.07300
H282        H  0.74568276  0.74642297  0.73919964     0.39100
O283        O  0.75548983  0.73812463  0.72144900    -1.09100
O284        O  0.74985453  0.71709373  0.65915811    -0.65800
Ni285      Ni  0.73206115  0.74632046  0.68565450     1.26300
O286        O  0.77195763  0.79364910  0.73812842    -0.66000
O287        O  0.70232854  0.71930038  0.69656065    -0.78300
C288        C  0.70029400  0.78230528  0.64403654     0.85200
O289        O  0.70947589  0.75659267  0.65008752    -0.65500
Ni290      Ni  0.76428605  0.69805266  0.73170028     1.27400
Ni291      Ni  0.78642717  0.76331743  0.71012440     1.26100
H292        H  0.77141257  0.76715278  0.65668676     0.39700
O293        O  0.47914390  0.47819330  0.75295617    -0.73800
O294        O  0.53469925  0.53949401  0.74537855    -0.73800
O295        O  0.47616154  0.53755866  0.75060136    -0.73900
O296        O  0.53786462  0.47974170  0.74720145    -0.73900
O297        O  0.53273129  0.47788597  0.69571940    -0.73900
O298        O  0.47136877  0.53524096  0.69893898    -0.73800
O299        O  0.53009414  0.53745767  0.69371208    -0.73800
O300        O  0.47418076  0.47596827  0.70148655    -0.73900
Ni301      Ni  0.50717894  0.50881003  0.75087507     1.25400
Ni302      Ni  0.50195772  0.50659294  0.69563593     1.25400
C303        C  0.46737947  0.46693627  0.72864573     0.88400
C304        C  0.54161670  0.54851937  0.71834857     0.88300
C305        C  0.46343038  0.54554659  0.72522903     0.88300
C306        C  0.54524515  0.46895901  0.72077838     0.88500
O307        O  0.52937025  0.46323836  0.14962367    -0.73800
O308        O  0.46985684  0.52249800  0.14643008    -0.73800
O309        O  0.52881126  0.52266180  0.14384782    -0.73900
O310        O  0.47041906  0.46323111  0.15235256    -0.73900
O311        O  0.47245426  0.46873819  0.20388889    -0.73900
O312        O  0.53174528  0.52662683  0.19520928    -0.73800
O313        O  0.47310369  0.52756808  0.19789286    -0.73800
O314        O  0.53117139  0.46746942  0.20129629    -0.73900
Ni315      Ni  0.49954582  0.49274438  0.14617875     1.25400
Ni316      Ni  0.50226932  0.49776817  0.20135764     1.25400
C317        C  0.53992798  0.45553015  0.17609632     0.88400
C318        C  0.46159872  0.53470618  0.17168758     0.88300
C319        C  0.54010271  0.53454841  0.16816966     0.88300
C320        C  0.46166151  0.45643945  0.17957581     0.88500
O321        O  0.75554138  0.52919911  0.42060724    -0.73800
O322        O  0.76059899  0.47308656  0.48752542    -0.73800
O323        O  0.75991107  0.53264483  0.48349531    -0.73900
O324        O  0.75577607  0.46934006  0.42486458    -0.73900
O325        O  0.80385703  0.46885800  0.42104515    -0.73900
O326        O  0.80818006  0.53216827  0.48070542    -0.73800
O327        O  0.80881903  0.47243278  0.48364830    -0.73800
O328        O  0.80389637  0.52880406  0.41755044    -0.73900
Ni329      Ni  0.75625848  0.50112290  0.45420151     1.25400
Ni330      Ni  0.80790482  0.50061174  0.45059062     1.25400
C331        C  0.77897635  0.53827912  0.40819132     0.88400
C332        C  0.78561981  0.46309760  0.49614511     0.88300
C333        C  0.78463977  0.54266851  0.49215595     0.88300
C334        C  0.77896145  0.45827669  0.41342502     0.88500
O335        O  0.52823152  0.76425768  0.47798916    -0.73800
O336        O  0.46537960  0.75639952  0.41985183    -0.73800
O337        O  0.52379845  0.76106251  0.41526863    -0.73900
O338        O  0.47026698  0.75988046  0.48247893    -0.73900
O339        O  0.46661582  0.80875013  0.48038175    -0.73900
O340        O  0.51855059  0.80976092  0.41198603    -0.73800
O341        O  0.46014998  0.80507103  0.41768897    -0.73800
O342        O  0.52461551  0.81303768  0.47482409    -0.73900
Ni343      Ni  0.49705962  0.75866791  0.44889739     1.25400
Ni344      Ni  0.49230503  0.81091502  0.44605615     1.25400
C345        C  0.53664849  0.78986279  0.48626153     0.88400
C346        C  0.45212870  0.77929414  0.40939585     0.88300
C347        C  0.52993499  0.78562421  0.40258972     0.88300
C348        C  0.46011826  0.78422935  0.49285207     0.88500
O349        O  0.22042041  0.45660413  0.45642689    -0.73800
O350        O  0.22422411  0.53348300  0.49129215    -0.73800
O351        O  0.22164527  0.47873582  0.51472310    -0.73900
O352        O  0.22288582  0.51119459  0.43363834    -0.73900
O353        O  0.17449297  0.51463287  0.43316454    -0.73900
O354        O  0.17318307  0.48097407  0.51422402    -0.73800
O355        O  0.17583684  0.53646956  0.49150072    -0.73800
O356        O  0.17199958  0.45940743  0.45538498    -0.73900
Ni357      Ni  0.22398190  0.49486282  0.47413995     1.25400
Ni358      Ni  0.17208003  0.49795127  0.47364438     1.25400
C359        C  0.19570974  0.44555757  0.44947806     0.88400
C360        C  0.20081077  0.54790523  0.49650091     0.88300
C361        C  0.19730711  0.47424811  0.52771864     0.88300
C362        C  0.19899244  0.51841690  0.42014127     0.88500
O363        O  0.46713545  0.23183739  0.49612639    -0.73800
O364        O  0.52154418  0.23132072  0.42950403    -0.73800
O365        O  0.46295701  0.23006515  0.43339818    -0.73900
O366        O  0.52550355  0.23300396  0.49205433    -0.73900
O367        O  0.52690480  0.18394511  0.49377169    -0.73900
O368        O  0.46447577  0.18132066  0.43411587    -0.73800
O369        O  0.52342655  0.18250470  0.43083400    -0.73800
O370        O  0.46812436  0.18279769  0.49710079    -0.73900
Ni371      Ni  0.49417751  0.23326041  0.46271169     1.25400
Ni372      Ni  0.49575598  0.18085138  0.46398342     1.25400
C373        C  0.45871228  0.20747362  0.50753540     0.88400
C374        C  0.53186641  0.20688700  0.41934813     0.88300
C375        C  0.45326713  0.20529891  0.42385337     0.88300
C376        C  0.53660820  0.20900047  0.50227484     0.88500
C377        C  0.60628107  0.80916820  0.53046612    -0.11200
C378        C  0.60495135  0.78934838  0.55530609     0.11300
C379        C  0.58003143  0.77190339  0.55903970    -0.03100
C380        C  0.55817166  0.77303013  0.53593009    -0.05800
C381        C  0.55988906  0.79200182  0.51028837    -0.16600
C382        C  0.58386236  0.81114607  0.50790749     0.02400
C383        C  0.62985998  0.78772847  0.57742195     0.12300
C384        C  0.57638544  0.75261914  0.58752862     0.62900
H385        H  0.53929886  0.75916183  0.53782519     0.12300
C386        C  0.58619485  0.83299602  0.48146470     0.55100
H387        H  0.62524243  0.82294268  0.52885229     0.08100
C388        C  0.65387568  0.76876581  0.57231593    -0.05700
C389        C  0.67626641  0.76767593  0.59485019    -0.06400
C390        C  0.67582379  0.78563864  0.62149384    -0.16000
C391        C  0.65214613  0.80540602  0.62597526    -0.01600
C392        C  0.62944114  0.80597422  0.60370393    -0.09100
C393        C  0.65606366  0.75022396  0.54294373     0.65100
H394        H  0.69466984  0.75300209  0.59158351     0.10600
C395        C  0.65036862  0.82537465  0.65426342     0.63500
H396        H  0.61102541  0.82071383  0.60656090     0.08000
F397        F  0.61227583  0.84787008  0.48255533    -0.19500
F398        F  0.56400131  0.85362581  0.48335024    -0.15700
F399        F  0.58432221  0.81848623  0.45320573    -0.19200
F400        F  0.57725866  0.76977978  0.61410009    -0.22600
F401        F  0.59840466  0.73178788  0.58928155    -0.24100
F402        F  0.55011832  0.73807023  0.58684666    -0.18100
F403        F  0.67155865  0.84660926  0.65275167    -0.20600
F404        F  0.65429210  0.80910267  0.68115991    -0.21700
F405        F  0.62366999  0.83957699  0.65596487    -0.18900
F406        F  0.68146015  0.73363560  0.54250987    -0.19000
F407        F  0.65573783  0.76828574  0.51713837    -0.22800
F408        F  0.63293537  0.73120104  0.54075052    -0.24400
C409        C  0.78722163  0.65943437  0.58674193    -0.11200
C410        C  0.77584730  0.63101218  0.58896739     0.11300
C411        C  0.76083752  0.62276292  0.61604306    -0.03100
C412        C  0.75680979  0.64376168  0.63963635    -0.05800
C413        C  0.76756258  0.67240551  0.63723031    -0.16600
C414        C  0.78331513  0.68045175  0.61055913     0.02400
C415        C  0.77953478  0.61029679  0.56246167     0.12300
C416        C  0.74952181  0.59178200  0.62024289     0.62900
H417        H  0.74511616  0.63794560  0.66038816     0.12300
C418        C  0.79648879  0.71070779  0.60763566     0.55100
H419        H  0.79896748  0.66507164  0.56598181     0.08100
C420        C  0.75994710  0.61017421  0.53680836    -0.05700
C421        C  0.76304496  0.58820353  0.51395704    -0.06400
C422        C  0.78526627  0.56675446  0.51569266    -0.16000
C423        C  0.80561511  0.56769220  0.54086020    -0.01600
C424        C  0.80234996  0.58964670  0.56381312    -0.09100
C425        C  0.73579260  0.63308692  0.53376727     0.65100
H426        H  0.74787382  0.58748196  0.49448167     0.10600
C427        C  0.83000533  0.54513520  0.54425695     0.63500
H428        H  0.81726116  0.59055436  0.58350534     0.08000
F429        F  0.77462278  0.73164288  0.60489163    -0.19500
F430        F  0.81392352  0.71270079  0.58176490    -0.15700
F431        F  0.81342739  0.71676336  0.63367739    -0.19200
F432        F  0.77263131  0.57214786  0.62154382    -0.22600
F433        F  0.73134998  0.58428580  0.59567472    -0.24100
F434        F  0.73400207  0.58904193  0.64742087    -0.18100
F435        F  0.84939756  0.54833295  0.52026940    -0.20600
F436        F  0.81875450  0.51706713  0.54355310    -0.21700
F437        F  0.84524695  0.54839515  0.57203641    -0.18900
F438        F  0.71856485  0.62845196  0.50758697    -0.19000
F439        F  0.74771516  0.66073406  0.53151342    -0.22800
F440        F  0.71812480  0.63231077  0.55947906    -0.24400
C441        C  0.63030954  0.65842618  0.69356912    -0.11200
C442        C  0.62817476  0.63917503  0.71872221     0.11300
C443        C  0.64979373  0.63906889  0.74238795    -0.03100
C444        C  0.67204742  0.65989076  0.74104399    -0.05800
C445        C  0.67488194  0.67895158  0.71548551    -0.16600
C446        C  0.65382726  0.67772631  0.69080440     0.02400
C447        C  0.60481973  0.61706846  0.71771641     0.12300
C448        C  0.65052497  0.61573420  0.76768968     0.62900
H449        H  0.68833823  0.66036101  0.75944298     0.12300
C450        C  0.65666235  0.69506193  0.66077006     0.55100
H451        H  0.61383925  0.65722604  0.67536916     0.08100
C452        C  0.57770906  0.62175632  0.73209061    -0.05700
C453        C  0.55753215  0.59871772  0.73176709    -0.06400
C454        C  0.56314948  0.57220455  0.71601370    -0.16000
C455        C  0.58957915  0.56837582  0.69994017    -0.01600
C456        C  0.61015372  0.59094587  0.70134183    -0.09100
C457        C  0.56981183  0.65126116  0.74652276     0.65100
H458        H  0.53693983  0.60137000  0.74340354     0.10600
C459        C  0.59644303  0.54028773  0.68226038     0.63500
H460        H  0.63083306  0.58834739  0.68987302     0.08000
F461        F  0.65372059  0.72480780  0.66674922    -0.19500
F462        F  0.63556945  0.68760165  0.63894317    -0.15700
F463        F  0.68342827  0.68928838  0.64764738    -0.19200
F464        F  0.65393583  0.58830234  0.75424581    -0.22600
F465        F  0.62502403  0.61624309  0.78421131    -0.24100
F466        F  0.67331749  0.61981256  0.78857613    -0.18100
F467        F  0.57676599  0.53687629  0.65795402    -0.20600
F468        F  0.59486544  0.51645868  0.70202878    -0.21700
F469        F  0.62404386  0.54059951  0.66987150    -0.18900
F470        F  0.54246771  0.65099585  0.75952432    -0.19000
F471        F  0.56992186  0.67271735  0.72382048    -0.22800
F472        F  0.58959776  0.65867753  0.76961669    -0.24400
C473        C  0.80645073  0.37870852  0.62048478    -0.11200
C474        C  0.78949533  0.37500700  0.59348425     0.11300
C475        C  0.77177351  0.34997256  0.59045229    -0.03100
C476        C  0.76981911  0.33067565  0.61579482    -0.05800
C477        C  0.78456270  0.33566052  0.64432278    -0.16600
C478        C  0.80426183  0.35971462  0.64623577     0.02400
C479        C  0.78945700  0.39852672  0.56942536     0.12300
C480        C  0.75428027  0.34410774  0.56085647     0.62900
H481        H  0.75551189  0.31205509  0.61371702     0.12300
C482        C  0.82263748  0.36615895  0.67508144     0.55100
H483        H  0.82051239  0.39761671  0.62168703     0.08100
C484        C  0.77292784  0.42478501  0.57288959    -0.05700
C485        C  0.77240033  0.44540073  0.54849054    -0.06400
C486        C  0.78774699  0.44051880  0.52095850    -0.16000
C487        C  0.80406172  0.41407043  0.51741566    -0.01600
C488        C  0.80516747  0.39383273  0.54215154    -0.09100
C489        C  0.75561444  0.43076179  0.60209383     0.65100
H490        H  0.75999967  0.46564342  0.55074164     0.10600
C491        C  0.81874106  0.40633598  0.48701390     0.63500
H492        H  0.81781118  0.37372532  0.54013761     0.08000
F493        F  0.80502948  0.37534295  0.69910923    -0.19500
F494        F  0.84256684  0.38814443  0.66994885    -0.15700
F495        F  0.83809128  0.34122303  0.68379900    -0.19200
F496        F  0.77285286  0.33985062  0.53623955    -0.22600
F497        F  0.73602381  0.36771789  0.55444105    -0.24100
F498        F  0.73735470  0.31927705  0.56330866    -0.18100
F499        F  0.82963790  0.37785512  0.48706591    -0.20600
F500        F  0.84158774  0.42509886  0.48193672    -0.21700
F501        F  0.79879162  0.40867907  0.46276651    -0.18900
F502        F  0.73978006  0.45673769  0.60000856    -0.19000
F503        F  0.77420470  0.43288189  0.62752027    -0.22800
F504        F  0.73636541  0.40816071  0.60686610    -0.24400
C505        C  0.61173636  0.22135314  0.53494344    -0.11200
C506        C  0.60713138  0.21696421  0.56664764     0.11300
C507        C  0.57921663  0.20968603  0.57747626    -0.03100
C508        C  0.55660446  0.20626597  0.55551161    -0.05800
C509        C  0.56138741  0.21054442  0.52376324    -0.16600
C510        C  0.58923588  0.21798728  0.51310762     0.02400
C511        C  0.63211404  0.22112242  0.58782562     0.12300
C512        C  0.57336402  0.20608022  0.61193138     0.62900
H513        H  0.53488746  0.20096202  0.56294263     0.12300
C514        C  0.59502157  0.22233534  0.47882513     0.55100
H515        H  0.63321477  0.22753649  0.52750892     0.08100
C516        C  0.65374674  0.19918785  0.59172724    -0.05700
C517        C  0.67730612  0.20503185  0.61165707    -0.06400
C518        C  0.68002828  0.23209502  0.62726199    -0.16000
C519        C  0.65859398  0.25446919  0.62241672    -0.01600
C520        C  0.63499627  0.24843765  0.60245316    -0.09100
C521        C  0.65202140  0.16986856  0.57476736     0.65100
H522        H  0.69406896  0.18840523  0.61498106     0.10600
C523        C  0.65963544  0.28406994  0.63882828     0.63500
H524        H  0.61837872  0.26500918  0.59803350     0.08000
F525        F  0.58736492  0.19730119  0.46248774    -0.19500
F526        F  0.62402062  0.22782473  0.47329247    -0.15700
F527        F  0.57883255  0.24599453  0.46798493    -0.19200
F528        F  0.57850996  0.23223922  0.62736289    -0.22600
F529        F  0.59134978  0.18444889  0.62432635    -0.24100
F530        F  0.54486688  0.19826803  0.61721728    -0.18100
F531        F  0.63526171  0.30119439  0.63227636    -0.20600
F532        F  0.68363830  0.29958809  0.62944206    -0.21700
F533        F  0.66084375  0.27976913  0.67061601    -0.18900
F534        F  0.67479963  0.15121841  0.58302419    -0.19000
F535        F  0.65308944  0.17427501  0.54301333    -0.22800
F536        F  0.62634155  0.15605987  0.58177787    -0.24400
C537        C  0.66475661  0.38926075  0.70175815    -0.11200
C538        C  0.63925193  0.38206022  0.71733060     0.11300
C539        C  0.63686279  0.35383851  0.73092214    -0.03100
C540        C  0.66085718  0.33421021  0.72975028    -0.05800
C541        C  0.68688261  0.34197664  0.71538475    -0.16600
C542        C  0.68869981  0.36971420  0.70054239     0.02400
C543        C  0.61531679  0.40451393  0.71867763     0.12300
C544        C  0.60903228  0.34459936  0.74652330     0.62900
H545        H  0.65960353  0.31270481  0.74033840     0.12300
C546        C  0.71545126  0.37821809  0.68252511     0.55100
H547        H  0.66577413  0.41056571  0.69068406     0.08100
C548        C  0.61569416  0.42801219  0.74037826    -0.05700
C549        C  0.59232593  0.44834126  0.74038129    -0.06400
C550        C  0.56887027  0.44622242  0.71919888    -0.16000
C551        C  0.56854764  0.42256197  0.69743689    -0.01600
C552        C  0.59203899  0.40235587  0.69742294    -0.09100
C553        C  0.64074847  0.43160477  0.76340968     0.65100
H554        H  0.59244133  0.46646943  0.75674635     0.10600
C555        C  0.54323514  0.41787142  0.67490487     0.63500
H556        H  0.59246004  0.38450390  0.68072102     0.08000
F557        F  0.73934673  0.37962971  0.70228085    -0.19500
F558        F  0.71206620  0.40535271  0.66838269    -0.15700
F559        F  0.72056428  0.35753772  0.65958188    -0.19200
F560        F  0.58661414  0.34375826  0.72480103    -0.22600
F561        F  0.60189780  0.36439705  0.76971034    -0.24100
F562        F  0.61171737  0.31701906  0.75981240    -0.18100
F563        F  0.54266387  0.43975664  0.65265085    -0.20600
F564        F  0.51734657  0.41819460  0.69089460    -0.21700
F565        F  0.54537062  0.39115183  0.65958368    -0.18900
F566        F  0.63636961  0.45523591  0.78320688    -0.19000
F567        F  0.66622601  0.43625250  0.74761551    -0.22800
F568        F  0.64384560  0.40657209  0.78134204    -0.24400
C569        C  0.36988603  0.19894856  0.62704809    -0.11200
C570        C  0.37768804  0.22206732  0.60753874     0.11300
C571        C  0.36430607  0.24999471  0.61101873    -0.03100
C572        C  0.34496859  0.25440898  0.63566170    -0.05800
C573        C  0.33823914  0.23175622  0.65647351    -0.16600
C574        C  0.35015713  0.20313270  0.65145985     0.02400
C575        C  0.39927899  0.21614653  0.58291529     0.12300
C576        C  0.37040077  0.27500215  0.58874780     0.62900
H577        H  0.33553667  0.27601767  0.63934481     0.12300
C578        C  0.34202136  0.17687657  0.67120551     0.55100
H579        H  0.37983808  0.17758199  0.62323831     0.08100
C580        C  0.42954641  0.21921616  0.58832572    -0.05700
C581        C  0.44845129  0.21572282  0.56308350    -0.06400
C582        C  0.43798871  0.20821125  0.53334880    -0.16000
C583        C  0.40798935  0.20327180  0.52845978    -0.01600
C584        C  0.38900067  0.20741029  0.55348485    -0.09100
C585        C  0.44175374  0.22575051  0.62061843     0.65100
H586        H  0.47159677  0.21893410  0.56629204     0.10600
C587        C  0.39618498  0.19438506  0.49673350     0.63500
H588        H  0.36583551  0.20447531  0.55016744     0.08000
F589        F  0.35509640  0.17892605  0.70027712    -0.19500
F590        F  0.35098777  0.15062346  0.65788257    -0.15700
F591        F  0.31216064  0.17582527  0.67430554    -0.19200
F592        F  0.36265003  0.26685659  0.55879279    -0.22600
F593        F  0.39959893  0.28173204  0.58962134    -0.24100
F594        F  0.35484224  0.30021618  0.59615266    -0.18100
F595        F  0.36636739  0.19068544  0.49689420    -0.20600
F596        F  0.40888731  0.16810220  0.48770812    -0.21700
F597        F  0.40241913  0.21583563  0.47518557    -0.18900
F598        F  0.47177396  0.22755608  0.62070568    -0.19000
F599        F  0.43422718  0.20357383  0.64078224    -0.22800
F600        F  0.43073219  0.25211854  0.63155022    -0.24400
C601        C  0.20567516  0.38867370  0.65267095    -0.11200
C602        C  0.21711647  0.39213747  0.62300614     0.11300
C603        C  0.23787723  0.37184830  0.61146978    -0.03100
C604        C  0.24461507  0.34691181  0.62928326    -0.05800
C605        C  0.23141297  0.34215670  0.65795800    -0.16600
C606        C  0.21270663  0.36392024  0.67071366     0.02400
C607        C  0.20658326  0.41680155  0.60385466     0.12300
C608        C  0.25251939  0.37639928  0.58037433     0.62900
H609        H  0.25941902  0.33034092  0.62039469     0.12300
C610        C  0.20034996  0.36132729  0.70315921     0.55100
H611        H  0.19047765  0.40508583  0.66114134     0.08100
C612        C  0.18264992  0.41362995  0.58317850    -0.05700
C613        C  0.17835214  0.43489702  0.56003679    -0.06400
C614        C  0.19725073  0.45868940  0.55749032    -0.16000
C615        C  0.21833392  0.46399820  0.58108655    -0.01600
C616        C  0.22282627  0.44258424  0.60402030    -0.09100
C617        C  0.16268590  0.38731784  0.58477071     0.65100
H618        H  0.16173198  0.43176697  0.54227102     0.10600
C619        C  0.23705971  0.49121429  0.58137471     0.63500
H620        H  0.24042723  0.44485292  0.62085452     0.08000
F621        F  0.17840455  0.34083398  0.70319168    -0.19500
F622        F  0.18890528  0.38785956  0.71336735    -0.15700
F623        F  0.22199143  0.35286429  0.72404058    -0.19200
F624        F  0.26790359  0.40231719  0.58110800    -0.22600
F625        F  0.23195451  0.37779855  0.55665527    -0.24100
F626        F  0.27178652  0.35378168  0.57357709    -0.18100
F627        F  0.24821667  0.49665519  0.61089441    -0.20600
F628        F  0.22079056  0.51557875  0.57235976    -0.21700
F629        F  0.26001399  0.48737738  0.56132862    -0.18900
F630        F  0.14054883  0.38889219  0.56265345    -0.19000
F631        F  0.15016086  0.38626884  0.61377283    -0.22800
F632        F  0.17822242  0.36159842  0.57983501    -0.24400
C633        C  0.42299643  0.40202994  0.75739642    -0.11200
C634        C  0.40224645  0.39965887  0.73343354     0.11300
C635        C  0.40198438  0.42010515  0.70871686    -0.03100
C636        C  0.42352689  0.44178297  0.70829810    -0.05800
C637        C  0.44511807  0.44366452  0.73172185    -0.16600
C638        C  0.44492234  0.42330778  0.75681781     0.02400
C639        C  0.38209404  0.37443682  0.73417111     0.12300
C640        C  0.37914343  0.41892663  0.68287099     0.62900
H641        H  0.42357237  0.45760368  0.68954209     0.12300
C642        C  0.46825984  0.42284623  0.78222344     0.55100
H643        H  0.42227721  0.38633110  0.77625553     0.08100
C644        C  0.39122174  0.34584949  0.72531256    -0.05700
C645        C  0.37121830  0.32282618  0.72669808    -0.06400
C646        C  0.34235639  0.32762453  0.73572220    -0.16000
C647        C  0.33315259  0.35638660  0.74441347    -0.01600
C648        C  0.35356277  0.37922452  0.74414063    -0.09100
C649        C  0.42181898  0.33979377  0.71386918     0.65100
H650        H  0.37780565  0.30085037  0.71984279     0.10600
C651        C  0.30208109  0.36315658  0.75382350     0.63500
H652        H  0.34726847  0.40126178  0.75106884     0.08000
F653        F  0.46598884  0.39855732  0.80133672    -0.19500
F654        F  0.46573284  0.44763456  0.80069581    -0.15700
F655        F  0.49549077  0.42182820  0.76899951    -0.19200
F656        F  0.35193072  0.42416176  0.69503049    -0.22600
F657        F  0.37951525  0.39156824  0.66881404    -0.24100
F658        F  0.38387559  0.43978729  0.66016795    -0.18100
F659        F  0.29918212  0.39124301  0.76593289    -0.20600
F660        F  0.29337091  0.34352533  0.77627415    -0.21700
F661        F  0.28385226  0.36117006  0.72807285    -0.18900
F662        F  0.42544240  0.31092698  0.70431189    -0.19000
F663        F  0.44181757  0.34511705  0.73743645    -0.22800
F664        F  0.42762412  0.35775025  0.68887642    -0.24400
C665        C  0.90428424  0.92137534  0.67722841    -0.11200
C666        C  0.90907508  0.89494306  0.69316110     0.11300
C667        C  0.93621936  0.88906662  0.70783028    -0.03100
C668        C  0.95804460  0.91026425  0.70586111    -0.05800
C669        C  0.95325004  0.93670957  0.68984553    -0.16600
C670        C  0.92579556  0.94286778  0.67592037     0.02400
C671        C  0.88499169  0.87390064  0.69388828     0.12300
C672        C  0.94201528  0.86063266  0.72539835     0.62900
H673        H  0.97916077  0.90629325  0.71660723     0.12300
C674        C  0.91872670  0.97246319  0.66120830     0.55100
H675        H  0.88327883  0.92514938  0.66616146     0.08100
C676        C  0.86135934  0.87772770  0.71425101    -0.05700
C677        C  0.83854473  0.85759741  0.71258347    -0.06400
C678        C  0.83875154  0.83436347  0.69113800    -0.16000
C679        C  0.86224584  0.83064878  0.67063154    -0.01600
C680        C  0.88516864  0.85070400  0.67237604    -0.09100
C681        C  0.85990296  0.90329772  0.73703284     0.65100
H682        H  0.82004919  0.86005585  0.72773085     0.10600
C683        C  0.86250427  0.80633893  0.64639389     0.63500
H684        H  0.90329758  0.84873034  0.65668581     0.08000
F685        F  0.92494922  0.99470683  0.68215351    -0.19500
F686        F  0.88962205  0.97499968  0.65291536    -0.15700
F687        F  0.93492322  0.97616659  0.63471958    -0.19200
F688        F  0.94083204  0.83710560  0.70504590    -0.22600
F689        F  0.92140438  0.85701033  0.74810197    -0.24100
F690        F  0.96913072  0.86040984  0.73978683    -0.18100
F691        F  0.88625844  0.80821260  0.62712612    -0.20600
F692        F  0.83760458  0.80818822  0.62804936    -0.21700
F693        F  0.86360660  0.77928628  0.66092762    -0.18900
F694        F  0.83650619  0.90102988  0.75673938    -0.19000
F695        F  0.85697781  0.92941212  0.72089495    -0.22800
F696        F  0.88493375  0.90415509  0.75515555    -0.24400
C697        C  0.91636857  0.08888004  0.71699467    -0.11200
C698        C  0.91031865  0.10394280  0.68923028     0.11300
C699        C  0.92702286  0.09763967  0.66263797    -0.03100
C700        C  0.94884265  0.07573615  0.66459723    -0.05800
C701        C  0.95464133  0.05986945  0.69217158    -0.16600
C702        C  0.93786848  0.06657637  0.71902535     0.02400
C703        C  0.88607786  0.12602962  0.68880212     0.12300
C704        C  0.92187503  0.11407016  0.63230747     0.62900
H705        H  0.96172436  0.07096753  0.64430562     0.12300
C706        C  0.94169302  0.05013084  0.74960441     0.55100
H707        H  0.90357699  0.09458049  0.73712103     0.08100
C708        C  0.85660200  0.11754694  0.68667357    -0.05700
C709        C  0.83481457  0.13951533  0.68705783    -0.06400
C710        C  0.84136288  0.16960529  0.68957235    -0.16000
C711        C  0.87099779  0.17804562  0.69146723    -0.01600
C712        C  0.89280951  0.15595745  0.69137823    -0.09100
C713        C  0.84815957  0.08541080  0.68384813     0.65100
H714        H  0.81220661  0.13320808  0.68585924     0.10600
C715        C  0.87981284  0.21008032  0.69285763     0.63500
H716        H  0.91548434  0.16186828  0.69349842     0.08000
F717        F  0.92135398  0.05878415  0.77131832    -0.19500
F718        F  0.96892219  0.05552626  0.76225665    -0.15700
F719        F  0.93839788  0.02028713  0.74466750    -0.19200
F720        F  0.92815454  0.14345737  0.63646371    -0.22600
F721        F  0.89319736  0.11146643  0.62279354    -0.24100
F722        F  0.93921047  0.10329499  0.60872490    -0.18100
F723        F  0.90942674  0.21330560  0.68898939    -0.20600
F724        F  0.87267321  0.22193239  0.72142635    -0.21700
F725        F  0.86572625  0.22570397  0.66943737    -0.18900
F726        F  0.81836739  0.08209528  0.68098636    -0.19000
F727        F  0.85740385  0.07012849  0.70996417    -0.22800
F728        F  0.86081429  0.07304580  0.65787771    -0.24400
C729        C  0.09963698  0.10319887  0.70538896    -0.11200
C730        C  0.12038036  0.10137819  0.68193478     0.11300
C731        C  0.12059522  0.07726657  0.66118815    -0.03100
C732        C  0.09901806  0.05595458  0.66408838    -0.05800
C733        C  0.07800334  0.05781156  0.68739894    -0.16600
C734        C  0.07805279  0.08192609  0.70839759     0.02400
C735        C  0.14237361  0.12464162  0.68097314     0.12300
C736        C  0.14355623  0.07399673  0.63633785     0.62900
H737        H  0.09853854  0.03742686  0.64825395     0.12300
C738        C  0.05506275  0.08591449  0.73316400     0.55100
H739        H  0.10053728  0.12165426  0.72133809     0.08100
C740        C  0.13605762  0.15256148  0.66822814    -0.05700
C741        C  0.15693383  0.17458343  0.67144957    -0.06400
C742        C  0.18351636  0.16983195  0.68754617    -0.16000
C743        C  0.19004444  0.14126223  0.69944169    -0.01600
C744        C  0.16904164  0.11927212  0.69602536    -0.09100
C745        C  0.10710521  0.15932606  0.65205947     0.65100
H746        H  0.15187298  0.19623152  0.66241069     0.10600
C747        C  0.21851210  0.13356551  0.71606789     0.63500
H748        H  0.17281652  0.09773543  0.70607274     0.08000
F749        F  0.05708091  0.11297389  0.74780564    -0.19500
F750        F  0.05840483  0.06444162  0.75565701    -0.15700
F751        F  0.02761822  0.08413041  0.71976547    -0.19200
F752        F  0.17080724  0.07182193  0.65011645    -0.22600
F753        F  0.14273950  0.09810517  0.61687144    -0.24100
F754        F  0.13934207  0.04909593  0.61832534    -0.18100
F755        F  0.21950115  0.14710743  0.74489132    -0.20600
F756        F  0.24174495  0.14243399  0.69845401    -0.21700
F757        F  0.22156868  0.10359677  0.72083344    -0.18900
F758        F  0.10594134  0.18767038  0.64043560    -0.19000
F759        F  0.08463665  0.15643822  0.67276709    -0.22800
F760        F  0.10278421  0.14017129  0.62748273    -0.24400
C761        C  0.21011680  0.68105231  0.56172864    -0.11200
C762        C  0.22284281  0.65311292  0.56432916     0.11300
C763        C  0.24438663  0.64747076  0.58741911    -0.03100
C764        C  0.25172719  0.67007781  0.60822765    -0.05800
C765        C  0.23778704  0.69765723  0.60698091    -0.16600
C766        C  0.21692974  0.70356040  0.58298276     0.02400
C767        C  0.21261787  0.62954390  0.54337122     0.12300
C768        C  0.25918669  0.61752425  0.59031971     0.62900
H769        H  0.26757032  0.66588631  0.62660100     0.12300
C770        C  0.20169339  0.73321941  0.57969482     0.55100
H771        H  0.19392801  0.68468503  0.54356413     0.08100
C772        C  0.18917401  0.61135688  0.55139768    -0.05700
C773        C  0.18508246  0.58518273  0.53461518    -0.06400
C774        C  0.20290965  0.57778218  0.50954244    -0.16000
C775        C  0.22322195  0.59844703  0.49858175    -0.01600
C776        C  0.22823100  0.62387902  0.51630500    -0.09100
C777        C  0.16886304  0.61958096  0.57761867     0.65100
H778        H  0.16867256  0.56979069  0.54169966     0.10600
C779        C  0.23892761  0.59420351  0.46802721     0.63500
H780        H  0.24516813  0.63895968  0.50986916     0.08000
F781        F  0.18184001  0.73700574  0.60325001    -0.19500
F782        F  0.18670188  0.73560297  0.55164552    -0.15700
F783        F  0.22190594  0.75548483  0.58100323    -0.19200
F784        F  0.27480159  0.61164381  0.56375499    -0.22600
F785        F  0.23871067  0.59586411  0.59410930    -0.24100
F786        F  0.27818760  0.61625742  0.61555940    -0.18100
F787        F  0.25230288  0.61977853  0.45873735    -0.20600
F788        F  0.21922283  0.58638940  0.44492408    -0.21700
F789        F  0.26003712  0.57253250  0.47096869    -0.18900
F790        F  0.14764028  0.59866874  0.58170059    -0.19000
F791        F  0.15517098  0.64602167  0.57073203    -0.22800
F792        F  0.18424179  0.62241049  0.60529947    -0.24400
C793        C  0.39762240  0.77317858  0.62747501    -0.11200
C794        C  0.38881037  0.78961138  0.60145380     0.11300
C795        C  0.36103928  0.80324329  0.60045147    -0.03100
C796        C  0.34221547  0.79859675  0.62528370    -0.05800
C797        C  0.35060185  0.78124211  0.65082020    -0.16600
C798        C  0.37903161  0.76900085  0.65260941     0.02400
C799        C  0.40761787  0.78880848  0.57400336     0.12300
C800        C  0.35118135  0.82210622  0.57306569     0.62900
H801        H  0.32039451  0.80777558  0.62458520     0.12300
C802        C  0.38914034  0.75025565  0.67995275     0.55100
H803        H  0.41885831  0.76268066  0.62731413     0.08100
C804        C  0.43219055  0.80688279  0.57131858    -0.05700
C805        C  0.44855436  0.80481274  0.54409460    -0.06400
C806        C  0.44165389  0.78454172  0.52048324    -0.16000
C807        C  0.41762819  0.76568472  0.52377763    -0.01600
C808        C  0.40095034  0.76824053  0.55071555    -0.09100
C809        C  0.44133530  0.82773553  0.59724183     0.65100
H810        H  0.46736028  0.81862053  0.54128479     0.10600
C811        C  0.40927272  0.74332917  0.49899604     0.63500
H812        H  0.38246293  0.75409046  0.55397900     0.08000
F813        F  0.38901819  0.76684060  0.70693785    -0.19500
F814        F  0.41705002  0.73932252  0.67605143    -0.15700
F815        F  0.37083801  0.72667551  0.68316600    -0.19200
F816        F  0.35028116  0.80546565  0.54615086    -0.22600
F817        F  0.37027660  0.84498179  0.56920015    -0.24100
F818        F  0.32375540  0.83406587  0.57748821    -0.18100
F819        F  0.43007709  0.72122622  0.49793542    -0.20600
F820        F  0.40710008  0.75673147  0.47024413    -0.21700
F821        F  0.38276749  0.73056202  0.50500127    -0.18900
F822        F  0.46529046  0.84406603  0.58922574    -0.19000
F823        F  0.44851045  0.81189875  0.62369609    -0.22800
F824        F  0.41889628  0.84703789  0.60394343    -0.24400
C825        C  0.38909898  0.58250725  0.71896670    -0.11200
C826        C  0.39621529  0.61178290  0.72551194     0.11300
C827        C  0.42537211  0.61903490  0.73323271    -0.03100
C828        C  0.44656715  0.59649917  0.73374118    -0.05800
C829        C  0.43959061  0.56746662  0.72607621    -0.16600
C830        C  0.41048862  0.56017016  0.71851085     0.02400
C831        C  0.37279228  0.63453216  0.72387776     0.12300
C832        C  0.43421578  0.65049258  0.74021498     0.62900
H833        H  0.46899397  0.60146114  0.73945131     0.12300
C834        C  0.40208134  0.52887178  0.71044823     0.55100
H835        H  0.36661006  0.57738806  0.71383502     0.08100
C836        C  0.36184530  0.64547584  0.69516669    -0.05700
C837        C  0.34195299  0.66912150  0.69553995    -0.06400
C838        C  0.33367088  0.68287824  0.72342428    -0.16000
C839        C  0.34358697  0.67089557  0.75221978    -0.01600
C840        C  0.36242157  0.64631392  0.75180650    -0.09100
C841        C  0.37174315  0.63290566  0.66423651     0.65100
H842        H  0.33393006  0.67814338  0.67373183     0.10600
C843        C  0.33512391  0.68413491  0.78329975     0.63500
H844        H  0.37052237  0.63697822  0.77344044     0.08000
F845        F  0.37248784  0.52633923  0.70497890    -0.19500
F846        F  0.40975698  0.51044277  0.73480051    -0.15700
F847        F  0.41625256  0.51981542  0.68390264    -0.19200
F848        F  0.42096276  0.66032411  0.76698896    -0.22600
F849        F  0.42606635  0.66853451  0.71569279    -0.24100
F850        F  0.46395866  0.65288230  0.74464333    -0.18100
F851        F  0.30546227  0.68932070  0.78389983    -0.20600
F852        F  0.34969912  0.71021900  0.78795574    -0.21700
F853        F  0.34224309  0.66560611  0.80780912    -0.18900
F854        F  0.36036222  0.64859036  0.63923972    -0.19000
F855        F  0.36271023  0.60416661  0.66127818    -0.22800
F856        F  0.40170847  0.63371794  0.66259354    -0.24400
C857        C  0.16510414  0.86239793  0.70494909    -0.11200
C858        C  0.13893956  0.85855849  0.68849488     0.11300
C859        C  0.13379638  0.83186233  0.67271546    -0.03100
C860        C  0.15363642  0.80849603  0.67708848    -0.05800
C861        C  0.17927990  0.81134849  0.69533908    -0.16600
C862        C  0.18586922  0.83953015  0.70805007     0.02400
C863        C  0.11739321  0.88308158  0.68807087     0.12300
C864        C  0.10779769  0.82834779  0.65081801     0.62900
H865        H  0.14887620  0.78759651  0.66622726     0.12300
C866        C  0.21453553  0.84606001  0.72440451     0.55100
H867        H  0.16891914  0.88357083  0.71573755     0.08100
C868        C  0.09563545  0.88562065  0.71084915    -0.05700
C869        C  0.07566832  0.90919076  0.70883004    -0.06400
C870        C  0.07738605  0.93075657  0.68555637    -0.16000
C871        C  0.10018528  0.92885367  0.66360792    -0.01600
C872        C  0.11960696  0.90470095  0.66512110    -0.09100
C873        C  0.09417488  0.86410087  0.73778228     0.65100
H874        H  0.05853983  0.91108773  0.72574804     0.10600
C875        C  0.10510158  0.95274212  0.63972281     0.63500
H876        H  0.13696557  0.90253565  0.64849616     0.08000
F877        F  0.21607903  0.83135631  0.75242137    -0.19500
F878        F  0.21764240  0.87574765  0.73057687    -0.15700
F879        F  0.23738423  0.83745482  0.70577743    -0.19200
F880        F  0.10915814  0.84893566  0.62731088    -0.22600
F881        F  0.08215734  0.83244026  0.66663919    -0.24100
F882        F  0.10719714  0.80074906  0.63719669    -0.18100
F883        F  0.10699180  0.97968487  0.65451966    -0.20600
F884        F  0.08245818  0.95338288  0.61826776    -0.21700
F885        F  0.13061915  0.94816741  0.62362361    -0.18900
F886        F  0.07117071  0.87044585  0.75717406    -0.19000
F887        F  0.11957056  0.86544070  0.75527385    -0.22800
F888        F  0.09079416  0.83575153  0.72685998    -0.24400
C889        C  0.12128797  0.71307977  0.79308222    -0.11200
C890        C  0.13095318  0.69482473  0.81732365     0.11300
C891        C  0.15904751  0.68205479  0.81695436    -0.03100
C892        C  0.17786072  0.69034589  0.79325125    -0.05800
C893        C  0.16877103  0.71017182  0.77012363    -0.16600
C894        C  0.13999161  0.72136514  0.76939617     0.02400
C895        C  0.11175584  0.69180396  0.84401595     0.12300
C896        C  0.16885713  0.65988685  0.84137586     0.62900
H897        H  0.19991210  0.68178480  0.79278036     0.12300
C898        C  0.12970250  0.74327761  0.74488671     0.55100
H899        H  0.09940447  0.72205328  0.79391413     0.08100
C900        C  0.11155213  0.71313164  0.86793969    -0.05700
C901        C  0.09132492  0.71032388  0.89164224    -0.06400
C902        C  0.07045886  0.68803406  0.89110331    -0.16000
C903        C  0.07029750  0.66702889  0.86657868    -0.01600
C904        C  0.09152168  0.66910522  0.84357840    -0.09100
C905        C  0.13161356  0.73952406  0.86761226     0.65100
H906        H  0.09101885  0.72628345  0.91037178     0.10600
C907        C  0.04705990  0.64369385  0.86345404     0.63500
H908        H  0.09194881  0.65364347  0.82438363     0.08000
F909        F  0.14685294  0.76801957  0.74627664    -0.19500
F910        F  0.10113936  0.75203495  0.74926160    -0.15700
F911        F  0.13153375  0.73081394  0.71561522    -0.19200
F912        F  0.15066228  0.63591760  0.84040980    -0.22600
F913        F  0.16793470  0.67232588  0.87070533    -0.24100
F914        F  0.19696104  0.64997000  0.83639457    -0.18100
F915        F  0.01982207  0.65682294  0.86392738    -0.20600
F916        F  0.04973488  0.62381236  0.88760543    -0.21700
F917        F  0.04925424  0.62816151  0.83582912    -0.18900
F918        F  0.12830663  0.75703300  0.89373219    -0.19000
F919        F  0.12544738  0.75663781  0.84178139    -0.22800
F920        F  0.16030265  0.73036511  0.86665891    -0.24400
C921        C  0.89193960  0.72008138  0.78965667    -0.11200
C922        C  0.88434930  0.70455621  0.81644806     0.11300
C923        C  0.85538939  0.69529251  0.82037030    -0.03100
C924        C  0.83490361  0.70146927  0.79673176    -0.05800
C925        C  0.84219636  0.71784385  0.77047171    -0.16600
C926        C  0.87112805  0.72718608  0.76650424     0.02400
C927        C  0.90637020  0.70131275  0.84161122     0.12300
C928        C  0.84582289  0.68037334  0.85005652     0.62900
H929        H  0.81254749  0.69474498  0.79923502     0.12300
C930        C  0.87989620  0.74441577  0.73803538     0.55100
H931        H  0.91414012  0.72741577  0.78757859     0.08100
C932        C  0.92656026  0.67770321  0.84277151    -0.05700
C933        C  0.94637292  0.67625196  0.86796677    -0.06400
C934        C  0.94733399  0.69831534  0.89091929    -0.16000
C935        C  0.92710612  0.72216499  0.88938505    -0.01600
C936        C  0.90694322  0.72307950  0.86461365    -0.09100
C937        C  0.92780769  0.65486314  0.81697972     0.65100
H938        H  0.96199647  0.65833501  0.86931603     0.10600
C939        C  0.92622954  0.74647642  0.91373759     0.63500
H940        H  0.89143200  0.74109265  0.86271852     0.08000
F941        F  0.90961110  0.74879996  0.73736035    -0.19500
F942        F  0.86626754  0.77163124  0.73809734    -0.15700
F943        F  0.87192622  0.72928959  0.71135166    -0.19200
F944        F  0.84828054  0.69975239  0.87474060    -0.22600
F945        F  0.86294825  0.65587893  0.85611779    -0.24100
F946        F  0.81720583  0.67140478  0.84803285    -0.18100
F947        F  0.95031204  0.76414476  0.91100059    -0.20600
F948        F  0.92571822  0.73444018  0.94324080    -0.21700
F949        F  0.90179005  0.76425460  0.91029007    -0.18900
F950        F  0.94846243  0.63323176  0.82319196    -0.19000
F951        F  0.93489541  0.66831996  0.78936251    -0.22800
F952        F  0.90119726  0.64142925  0.81332074    -0.24400
C953        C  0.75499601  0.84938604  0.81869206    -0.11200
C954        C  0.73430583  0.87192140  0.81490845     0.11300
C955        C  0.71767082  0.87344842  0.78706624    -0.03100
C956        C  0.72271244  0.85241284  0.76359211    -0.05800
C957        C  0.74462622  0.83051686  0.76631284    -0.16600
C958        C  0.76068951  0.82860578  0.79501650     0.02400
C959        C  0.73300865  0.89549402  0.83903371     0.12300
C960        C  0.69551994  0.89801318  0.78163298     0.62900
H961        H  0.71024348  0.85398539  0.74212984     0.12300
C962        C  0.78438192  0.80563353  0.80095503     0.55100
H963        H  0.76763625  0.84907366  0.84013354     0.08100
C964        C  0.71705867  0.89277319  0.86679330    -0.05700
C965        C  0.71737008  0.91620489  0.88839096    -0.06400
C966        C  0.73411269  0.94143120  0.88366930    -0.16000
C967        C  0.75021168  0.94396205  0.85589423    -0.01600
C968        C  0.74930837  0.92085504  0.83408042    -0.09100
C969        C  0.70076389  0.86484411  0.87407510     0.65100
H970        H  0.70539898  0.91451409  0.90980542     0.10600
C971        C  0.76794548  0.97106235  0.84890107     0.63500
H972        H  0.76171865  0.92218501  0.81292009     0.08000
F973        F  0.77330209  0.77777904  0.79648752    -0.19500
F974        F  0.79530499  0.80693108  0.83110831    -0.15700
F975        F  0.80732134  0.81015166  0.78114017    -0.19200
F976        F  0.70948993  0.92471301  0.78052041    -0.22600
F977        F  0.67569468  0.89873158  0.80545917    -0.24100
F978        F  0.68024862  0.89439869  0.75393021    -0.18100
F979        F  0.79178921  0.97223016  0.86877287    -0.20600
F980        F  0.75104098  0.99611854  0.85261490    -0.21700
F981        F  0.77800548  0.97082792  0.81870190    -0.18900
F982        F  0.68515524  0.86746658  0.90125435    -0.19000
F983        F  0.72033990  0.84180012  0.87761206    -0.22800
F984        F  0.68147315  0.85824919  0.85020576    -0.24400
C985        C  0.73544796  0.16014550  0.81628181    -0.11200
C986        C  0.73394955  0.13016614  0.80890560     0.11300
C987        C  0.73474411  0.12122110  0.77739864    -0.03100
C988        C  0.73983589  0.14250839  0.75450439    -0.05800
C989        C  0.74361196  0.17243568  0.76194294    -0.16600
C990        C  0.74017501  0.18161024  0.79335497     0.02400
C991        C  0.73339939  0.10852349  0.83482577     0.12300
C992        C  0.73054057  0.08929174  0.76803579     0.62900
H993        H  0.74179299  0.13560967  0.73050586     0.12300
C994        C  0.74114436  0.21371892  0.80293481     0.55100
H995        H  0.73392527  0.16648282  0.84051216     0.08100
C996        C  0.75897606  0.10063280  0.85155484    -0.05700
C997        C  0.75714302  0.08003310  0.87574339    -0.06400
C998        C  0.73092850  0.06605132  0.88311875    -0.16000
C999        C  0.70540658  0.07338583  0.86537406    -0.01600
C1000       C  0.70708235  0.09524478  0.84222385    -0.09100
C1001       C  0.78827444  0.11352020  0.84347587     0.65100
H1002       H  0.77661615  0.07452800  0.88896819     0.10600
C1003       C  0.67669405  0.05782658  0.86962515     0.63500
H1004       H  0.68783245  0.10187508  0.82915485     0.08000
F1005       F  0.73160120  0.21786662  0.83303834    -0.19500
F1006       F  0.72329444  0.23023289  0.78342442    -0.15700
F1007       F  0.76931630  0.22380991  0.80155381    -0.19200
F1008       F  0.70291542  0.08054960  0.77581506    -0.22600
F1009       F  0.75076062  0.07155327  0.78320004    -0.24100
F1010       F  0.73361139  0.08510031  0.73633720    -0.18100
F1011       F  0.65608120  0.06637234  0.84756183    -0.20600
F1012       F  0.66568636  0.06429832  0.89863156    -0.21700
F1013       F  0.68077930  0.02778803  0.86659654    -0.18900
F1014       F  0.81072751  0.10111859  0.86094049    -0.19000
F1015       F  0.78806983  0.14344010  0.84904537    -0.22800
F1016       F  0.79406681  0.10846029  0.81243245    -0.24400
C1017       C  0.91006782  0.29420596  0.87712224    -0.11200
C1018       C  0.91703106  0.27966877  0.84940551     0.11300
C1019       C  0.94524150  0.26788344  0.84508887    -0.03100
C1020       C  0.96533260  0.26963612  0.86985999    -0.05800
C1021       C  0.95805800  0.28340086  0.89794593    -0.16600
C1022       C  0.93015218  0.29603280  0.90184405     0.02400
C1023       C  0.89380257  0.27661985  0.82573252     0.12300
C1024       C  0.95409118  0.25392604  0.81445924     0.62900
H1025       H  0.98702639  0.26048873  0.86745924     0.12300
C1026       C  0.92120225  0.30989986  0.93244908     0.55100
H1027       H  0.88839588  0.30341239  0.87945878     0.08100
C1028       C  0.87190471  0.25529180  0.82855956    -0.05700
C1029       C  0.84905292  0.25526220  0.80663085    -0.06400
C1030       C  0.84771168  0.27563804  0.78211798    -0.16000
C1031       C  0.87068981  0.29588708  0.77842335    -0.01600
C1032       C  0.89308643  0.29638809  0.80089978    -0.09100
C1033       C  0.87262638  0.23285092  0.85473069     0.65100
H1034       H  0.83161710  0.23966304  0.80894096     0.10600
C1035       C  0.87232876  0.31622198  0.75056142     0.63500
H1036       H  0.91017422  0.31249295  0.79949165     0.08000
F1037       F  0.89233730  0.31880394  0.93191649    -0.19500
F1038       F  0.93797431  0.33428634  0.93868607    -0.15700
F1039       F  0.92494235  0.28968162  0.95616571    -0.19200
F1040       F  0.95360525  0.27498210  0.79134046    -0.22600
F1041       F  0.93514505  0.23173361  0.80632982    -0.24100
F1042       F  0.98185984  0.24196005  0.81613419    -0.18100
F1043       F  0.85135313  0.33809375  0.75262173    -0.20600
F1044       F  0.86819097  0.30029009  0.72342506    -0.21700
F1045       F  0.89912117  0.32962767  0.74886598    -0.18900
F1046       F  0.85038247  0.21275607  0.85174126    -0.19000
F1047       F  0.86975021  0.24687396  0.88308745    -0.22800
F1048       F  0.89868761  0.21744858  0.85457559    -0.24400
C1049       C  0.10152220  0.30120231  0.85106062    -0.11200
C1050       C  0.12053937  0.27703032  0.85002308     0.11300
C1051       C  0.12042569  0.25594384  0.87410365    -0.03100
C1052       C  0.09973242  0.25887745  0.89769523    -0.05800
C1053       C  0.07979972  0.28254515  0.89833243    -0.16600
C1054       C  0.08093404  0.30441447  0.87476748     0.02400
C1055       C  0.13949837  0.27357450  0.82262509     0.12300
C1056       C  0.14228115  0.23065290  0.87491459     0.62900
H1057       H  0.09908992  0.24265707  0.91604893     0.12300
C1058       C  0.06001345  0.33047918  0.87369322     0.55100
H1059       H  0.10260475  0.31726212  0.83257935     0.08100
C1060       C  0.12914908  0.26073439  0.79461843    -0.05700
C1061       C  0.14884802  0.25573046  0.77045437    -0.06400
C1062       C  0.17829459  0.26313101  0.77353611    -0.16000
C1063       C  0.18823712  0.27748308  0.80097396    -0.01600
C1064       C  0.16846587  0.28254291  0.82512838    -0.09100
C1065       C  0.09752459  0.25203609  0.79050440     0.65100
H1066       H  0.14152368  0.24527461  0.74912124     0.10600
C1067       C  0.21937887  0.28771381  0.80471814     0.63500
H1068       H  0.17562523  0.29288593  0.84658423     0.08000
F1069       F  0.03165350  0.32072945  0.87429668    -0.19500
F1070       F  0.06309989  0.34697485  0.84695280    -0.15700
F1071       F  0.06524385  0.34876193  0.89885301    -0.19200
F1072       F  0.17001674  0.24162980  0.87861721    -0.22600
F1073       F  0.14078125  0.21473272  0.84750825    -0.24100
F1074       F  0.13730751  0.21159842  0.89925970    -0.18100
F1075       F  0.22733118  0.30359061  0.77884088    -0.20600
F1076       F  0.23770475  0.26366681  0.80827980    -0.21700
F1077       F  0.22292068  0.30560429  0.83056096    -0.18900
F1078       F  0.09224418  0.23914734  0.76179796    -0.19000
F1079       F  0.07981957  0.27666012  0.79277073    -0.22800
F1080       F  0.09008878  0.23216286  0.81323610    -0.24400
C1081       C  0.27239915  0.13131668  0.83379596    -0.11200
C1082       C  0.28972032  0.10817153  0.82273110     0.11300
C1083       C  0.30262845  0.11008889  0.79319877    -0.03100
C1084       C  0.29931323  0.13641145  0.77641674    -0.05800
C1085       C  0.28294466  0.16012375  0.78806950    -0.16600
C1086       C  0.26878649  0.15751317  0.81697934     0.02400
C1087       C  0.29459325  0.08271940  0.84347928     0.12300
C1088       C  0.31979934  0.08450163  0.77970847     0.62900
H1089       H  0.30946657  0.13871691  0.75398985     0.12300
C1090       C  0.25101884  0.18261168  0.83069620     0.55100
H1091       H  0.26227152  0.12885066  0.85621727     0.08100
C1092       C  0.31520370  0.08372543  0.86816208    -0.05700
C1093       C  0.31642971  0.06034696  0.88934244    -0.06400
C1094       C  0.29676299  0.03701526  0.88744835    -0.16000
C1095       C  0.27721580  0.03523690  0.86160842    -0.01600
C1096       C  0.27650262  0.05836722  0.84000437    -0.09100
C1097       C  0.33436461  0.11033247  0.87341821     0.65100
H1098       H  0.33129755  0.06138238  0.90905641     0.10600
C1099       C  0.25691755  0.00945126  0.85676472     0.63500
H1100       H  0.26082579  0.05829701  0.82095908     0.08000
F1101       F  0.26742728  0.20789445  0.83169700    -0.19500
F1102       F  0.24235254  0.17657488  0.86069481    -0.15700
F1103       F  0.22629212  0.18750958  0.81271892    -0.19200
F1104       F  0.30206108  0.06031649  0.77659615    -0.22600
F1105       F  0.34299169  0.07738836  0.79914640    -0.24100
F1106       F  0.33059397  0.09102252  0.75067236    -0.18100
F1107       F  0.23406145  0.01136958  0.87720743    -0.20600
F1108       F  0.27187870  0.98329579  0.86149748    -0.21700
F1109       F  0.24538080  0.00894500  0.82684253    -0.18900
F1110       F  0.35500958  0.10540180  0.89661304    -0.19000
F1111       F  0.31740153  0.13412551  0.88216123    -0.22800
F1112       F  0.34881014  0.11719666  0.84647868    -0.24400
C1113       C  0.30781709  0.88222736  0.87506555    -0.11200
C1114       C  0.29240673  0.85946850  0.88889955     0.11300
C1115       C  0.28501809  0.86133239  0.92060775    -0.03100
C1116       C  0.28994497  0.88796715  0.93630930    -0.05800
C1117       C  0.30230354  0.91207185  0.92124910    -0.16600
C1118       C  0.31274015  0.90885687  0.89056604     0.02400
C1119       C  0.28230263  0.83553025  0.86829904     0.12300
C1120       C  0.27129724  0.83576211  0.93732433     0.62900
H1121       H  0.28273816  0.89075214  0.96003865     0.12300
C1122       C  0.32757971  0.93270510  0.87217730     0.55100
H1123       H  0.31431770  0.87988068  0.85101606     0.08100
C1124       C  0.25835738  0.83983727  0.84772514    -0.05700
C1125       C  0.25371289  0.81927623  0.82380137    -0.06400
C1126       C  0.27250526  0.79506912  0.81965332    -0.16000
C1127       C  0.29420237  0.78900652  0.84279006    -0.01600
C1128       C  0.29908176  0.80983322  0.86643141    -0.09100
C1129       C  0.23907166  0.86713088  0.84962179     0.65100
H1130       H  0.23665949  0.82334933  0.80676662     0.10600
C1131       C  0.31297024  0.76137722  0.84241818     0.63500
H1132       H  0.31716095  0.80696606  0.88260104     0.08000
F1133       F  0.31140130  0.93865816  0.84552448    -0.19500
F1134       F  0.35480582  0.92270445  0.86358310    -0.15700
F1135       F  0.33104401  0.95864043  0.88841310    -0.19200
F1136       F  0.28972128  0.81159119  0.93634116    -0.22600
F1137       F  0.24512919  0.82868768  0.92317802    -0.24100
F1138       F  0.26614071  0.84226197  0.96826103    -0.18100
F1139       F  0.33493487  0.76441543  0.82110279    -0.20600
F1140       F  0.29626982  0.73722952  0.83478319    -0.21700
F1141       F  0.32565291  0.75608671  0.87129645    -0.18900
F1142       F  0.21459884  0.86478533  0.83070945    -0.19000
F1143       F  0.25435863  0.89147927  0.84030766    -0.22800
F1144       F  0.22988895  0.87141206  0.87978910    -0.24400
C1145       C  0.36670365  0.77048989  0.28827580    -0.11200
C1146       C  0.36091503  0.75965727  0.31786737     0.11300
C1147       C  0.33468138  0.74472963  0.32321760    -0.03100
C1148       C  0.31513760  0.74059005  0.29808919    -0.05800
C1149       C  0.32121686  0.75070744  0.26796807    -0.16600
C1150       C  0.34789291  0.76560016  0.26285277     0.02400
C1151       C  0.38364425  0.76354124  0.34229014     0.12300
C1152       C  0.32748899  0.73327876  0.35530251     0.62900
H1153       H  0.29490932  0.72928574  0.30183230     0.12300
C1154       C  0.35763415  0.77525622  0.23076273     0.55100
H1155       H  0.38681190  0.78220972  0.28515528     0.08100
C1156       C  0.40913787  0.74586810  0.34295933    -0.05700
C1157       C  0.43071743  0.75192141  0.36538687    -0.06400
C1158       C  0.42790894  0.77522571  0.38668185    -0.16000
C1159       C  0.40219654  0.79281010  0.38613576    -0.01600
C1160       C  0.38049810  0.78662785  0.36367032    -0.09100
C1161       C  0.41374389  0.72093088  0.31984815     0.65100
H1162       H  0.45047547  0.73877252  0.36596770     0.10600
C1163       C  0.39734085  0.81778653  0.40905440     0.63500
H1164       H  0.36102675  0.80016440  0.36216431     0.08000
F1165       F  0.35628976  0.75185969  0.21019114    -0.19500
F1166       F  0.38602373  0.78504323  0.23115229    -0.15700
F1167       F  0.34013955  0.79809985  0.22009051    -0.19200
F1168       F  0.32413553  0.75662587  0.37561343    -0.22600
F1169       F  0.34964698  0.71511795  0.36619502    -0.24100
F1170       F  0.30202484  0.71735448  0.35499692    -0.18100
F1171       F  0.41590071  0.84057609  0.40258763    -0.20600
F1172       F  0.40241769  0.80817029  0.43912953    -0.21700
F1173       F  0.36911815  0.82861191  0.40742284    -0.18900
F1174       F  0.43871417  0.70480294  0.32662895    -0.19000
F1175       F  0.41633025  0.73211990  0.29017993    -0.22800
F1176       F  0.39048512  0.70198510  0.32039636    -0.24400
C1177       C  0.22412216  0.54518080  0.34230212    -0.11200
C1178       C  0.20787872  0.57124939  0.34018840     0.11300
C1179       C  0.18513914  0.57712565  0.36115128    -0.03100
C1180       C  0.18166066  0.55796982  0.38614388    -0.05800
C1181       C  0.19995256  0.53341930  0.39016003    -0.16600
C1182       C  0.22034123  0.52575015  0.36705998     0.02400
C1183       C  0.21580501  0.59269913  0.31651926     0.12300
C1184       C  0.16514645  0.60375328  0.35749016     0.62900
H1185       H  0.16566251  0.56293962  0.40368516     0.12300
C1186       C  0.23808868  0.49744254  0.36843388     0.55100
H1187       H  0.24064882  0.54082657  0.32513899     0.08100
C1188       C  0.23743202  0.61389538  0.32241744    -0.05700
C1189       C  0.24084662  0.63639552  0.30068579    -0.06400
C1190       C  0.22309580  0.63819717  0.27394340    -0.16000
C1191       C  0.20322557  0.61539343  0.26688227    -0.01600
C1192       C  0.20011819  0.59273872  0.28849288    -0.09100
C1193       C  0.25611008  0.61319157  0.35188771     0.65100
H1194       H  0.25629376  0.65371427  0.30532364     0.10600
C1195       C  0.18514419  0.61483156  0.23705271     0.63500
H1196       H  0.18427924  0.57564385  0.28448309     0.08000
F1197       F  0.25015214  0.49084518  0.33990162    -0.19500
F1198       F  0.22054607  0.47426150  0.37656609    -0.15700
F1199       F  0.26045059  0.50009476  0.39003783    -0.19200
F1200       F  0.15033676  0.60211917  0.32934761    -0.22600
F1201       F  0.18112077  0.62929464  0.35840214    -0.24100
F1202       F  0.14476497  0.60531761  0.38083860    -0.18100
F1203       F  0.17241235  0.58771498  0.23230421    -0.20600
F1204       F  0.20255971  0.62042541  0.21184078    -0.21700
F1205       F  0.16315638  0.63571277  0.23843768    -0.18900
F1206       F  0.27566266  0.63610334  0.35293291    -0.19000
F1207       F  0.27179428  0.58713482  0.35320724    -0.22800
F1208       F  0.23876277  0.61534149  0.37780126    -0.24400
C1209       C  0.34047453  0.61320343  0.17017244    -0.11200
C1210       C  0.36930895  0.62077812  0.17690262     0.11300
C1211       C  0.37625786  0.64984799  0.18563115    -0.03100
C1212       C  0.35359198  0.67039865  0.18823703    -0.05800
C1213       C  0.32447740  0.66275071  0.18267913    -0.16600
C1214       C  0.31761154  0.63364483  0.17338557     0.02400
C1215       C  0.39186431  0.59763249  0.17516933     0.12300
C1216       C  0.40736802  0.65904171  0.19264184     0.62900
H1217       H  0.35845959  0.69265321  0.19539673     0.12300
C1218       C  0.28660400  0.62405085  0.16670688     0.55100
H1219       H  0.33602029  0.59081677  0.16310251     0.08100
C1220       C  0.39613131  0.57702532  0.19937728    -0.05700
C1221       C  0.41887347  0.55650871  0.19677528    -0.06400
C1222       C  0.43769599  0.55655812  0.17132938    -0.16000
C1223       C  0.43361762  0.57760996  0.14733840    -0.01600
C1224       C  0.40997841  0.59724354  0.14929109    -0.09100
C1225       C  0.37707537  0.57697962  0.22799108     0.65100
H1226       H  0.42221045  0.54020601  0.21482235     0.10600
C1227       C  0.45483912  0.58065285  0.12083060     0.63500
H1228       H  0.40588889  0.61317128  0.13102189     0.08000
F1229       F  0.27119973  0.62342264  0.19407872    -0.19500
F1230       F  0.28564790  0.59621270  0.15367615    -0.15700
F1231       F  0.27321668  0.64332619  0.14605388    -0.19200
F1232       F  0.42397194  0.65607510  0.16627746    -0.22600
F1233       F  0.41921236  0.64166722  0.21601487    -0.24100
F1234       F  0.40889280  0.68805532  0.20226221    -0.18100
F1235       F  0.45289823  0.55664711  0.10118180    -0.20600
F1236       F  0.48287058  0.58265671  0.13267331    -0.21700
F1237       F  0.44921130  0.60565587  0.10336711    -0.18900
F1238       F  0.38632648  0.55623356  0.24956773    -0.19000
F1239       F  0.34876034  0.57060690  0.21950458    -0.22800
F1240       F  0.37771955  0.60422216  0.24228843    -0.24400
C1241       C  0.24428873  0.85447300  0.09880530    -0.11200
C1242       C  0.26258094  0.87655739  0.11033445     0.11300
C1243       C  0.27252900  0.87578962  0.14155904    -0.03100
C1244       C  0.26624732  0.85098117  0.15942733    -0.05800
C1245       C  0.24996272  0.82770121  0.14707584    -0.16600
C1246       C  0.23783032  0.82971988  0.11675318     0.02400
C1247       C  0.27168922  0.89956186  0.08854507     0.12300
C1248       C  0.29003316  0.90074284  0.15564854     0.62900
H1249       H  0.27494425  0.84898501  0.18289175     0.12300
C1250       C  0.21954616  0.80520784  0.10295682     0.55100
H1251       H  0.23623677  0.85620656  0.07506940     0.08100
C1252       C  0.29431063  0.89449089  0.06711138    -0.05700
C1253       C  0.29962790  0.91603460  0.04466362    -0.06400
C1254       C  0.28300535  0.94197956  0.04319201    -0.16000
C1255       C  0.26187254  0.94792276  0.06605663    -0.01600
C1256       C  0.25621403  0.92620235  0.08819328    -0.09100
C1257       C  0.31222905  0.86620732  0.06746719     0.65100
H1258       H  0.31581665  0.91212086  0.02703415     0.10600
C1259       C  0.24612609  0.97735187  0.06769145     0.63500
H1260       H  0.23919048  0.92954945  0.10501712     0.08000
F1261       F  0.21123096  0.81100059  0.07248901    -0.19500
F1262       F  0.19466220  0.80198605  0.12021849    -0.15700
F1263       F  0.23519962  0.77907584  0.10329147    -0.19200
F1264       F  0.27355509  0.92631640  0.15518791    -0.22600
F1265       F  0.31501621  0.90502498  0.13887549    -0.24100
F1266       F  0.29809173  0.89508026  0.18621915    -0.18100
F1267       F  0.22757083  0.98078854  0.04238359    -0.20600
F1268       F  0.26629247  0.99966195  0.06798008    -0.21700
F1269       F  0.22979266  0.97993960  0.09437375    -0.18900
F1270       F  0.33379812  0.86644423  0.04534793    -0.19000
F1271       F  0.29458070  0.84245511  0.06132229    -0.22800
F1272       F  0.32544126  0.86248831  0.09627950    -0.24400
C1273       C  0.11430183  0.72564496  0.12584669    -0.11200
C1274       C  0.12296382  0.70233376  0.10657143     0.11300
C1275       C  0.14877873  0.68629581  0.11337126    -0.03100
C1276       C  0.16489011  0.69379655  0.14015106    -0.05800
C1277       C  0.15602282  0.71690991  0.15949124    -0.16600
C1278       C  0.13049140  0.73319571  0.15250343     0.02400
C1279       C  0.10511601  0.69631284  0.07856183     0.12300
C1280       C  0.15956742  0.66199827  0.09203007     0.62900
H1281       H  0.18489618  0.68212224  0.14588847     0.12300
C1282       C  0.12076442  0.75850419  0.17306259     0.55100
H1283       H  0.09479872  0.73797000  0.11965899     0.08100
C1284       C  0.07877994  0.68064986  0.08003184    -0.05700
C1285       C  0.06189666  0.67778740  0.05275038    -0.06400
C1286       C  0.07037936  0.69067831  0.02477984    -0.16000
C1287       C  0.09722469  0.70542283  0.02310115    -0.01600
C1288       C  0.11413607  0.70817033  0.05031463    -0.09100
C1289       C  0.06827830  0.66773250  0.11037876     0.65100
H1290       H  0.04116932  0.66675765  0.05339738     0.10600
C1291       C  0.10804355  0.71801301  0.99275210     0.63500
H1292       H  0.13423362  0.72033752  0.04998646     0.08000
F1293       F  0.11575574  0.74821474  0.20270026    -0.19500
F1294       F  0.09541272  0.77167788  0.16200826    -0.15700
F1295       F  0.14214728  0.77961787  0.17443325    -0.19200
F1296       F  0.16694923  0.67374724  0.06364321    -0.22600
F1297       F  0.13812460  0.64134212  0.08741703    -0.24100
F1298       F  0.18386086  0.64776855  0.10429963    -0.18100
F1299       F  0.13681786  0.72640264  0.99518803    -0.20600
F1300       F  0.09163089  0.74245372  0.98447504    -0.21700
F1301       F  0.10597281  0.69708110  0.96944837    -0.18900
F1302       F  0.04275925  0.65228024  0.10623701    -0.19000
F1303       F  0.06310201  0.68995115  0.13163343    -0.22800
F1304       F  0.08908271  0.64869362  0.12253368    -0.24400
C1305       C  0.77704795  0.57477522  0.32839629    -0.11200
C1306       C  0.77437337  0.60449119  0.33660984     0.11300
C1307       C  0.77287602  0.61236480  0.36847687    -0.03100
C1308       C  0.77430962  0.58993772  0.39110278    -0.05800
C1309       C  0.77737599  0.56018740  0.38281039    -0.16600
C1310       C  0.77916517  0.55244373  0.35087238     0.02400
C1311       C  0.77066265  0.62643898  0.31111792     0.12300
C1312       C  0.76980849  0.64428874  0.37844826     0.62900
H1313       H  0.77308468  0.59546387  0.41558099     0.12300
C1314       C  0.78308467  0.52131302  0.33878682     0.55100
H1315       H  0.77743729  0.56890229  0.30393492     0.08100
C1316       C  0.79413630  0.63645011  0.29311966    -0.05700
C1317       C  0.78835524  0.65660966  0.26884832    -0.06400
C1318       C  0.75997835  0.66654567  0.26173806    -0.16000
C1319       C  0.73640403  0.65537257  0.27897988    -0.01600
C1320       C  0.74231532  0.63567561  0.30351365    -0.09100
C1321       C  0.82506548  0.62576086  0.29935765     0.65100
H1322       H  0.80601798  0.66462707  0.25494209     0.10600
C1323       C  0.70497333  0.66266231  0.27053335     0.63500
H1324       H  0.72466491  0.62680936  0.31684829     0.08000
F1325       F  0.80806676  0.51975596  0.32132441    -0.19500
F1326       F  0.75956343  0.51419969  0.31994690    -0.15700
F1327       F  0.78546497  0.50057428  0.36199568    -0.19200
F1328       F  0.74380373  0.65589429  0.36735018    -0.22600
F1329       F  0.79245673  0.66040958  0.36676006    -0.24100
F1330       F  0.77024322  0.64728625  0.41050433    -0.18100
F1331       F  0.68566897  0.64658664  0.28788313    -0.20600
F1332       F  0.69980423  0.65619806  0.23954055    -0.21700
F1333       F  0.69930888  0.69210037  0.27591112    -0.18900
F1334       F  0.84457263  0.63836132  0.27926442    -0.19000
F1335       F  0.82685081  0.59563977  0.29550922    -0.22800
F1336       F  0.83340148  0.63282852  0.32943985    -0.24400
C1337       C  0.63725383  0.80634717  0.30577918    -0.11200
C1338       C  0.61672484  0.78394132  0.30736832     0.11300
C1339       C  0.61810960  0.75991914  0.28654764    -0.03100
C1340       C  0.64157047  0.75799908  0.26615921    -0.05800
C1341       C  0.66294084  0.77975300  0.26520025    -0.16600
C1342       C  0.66057292  0.80478083  0.28499328     0.02400
C1343       C  0.59493263  0.78530412  0.33231217     0.12300
C1344       C  0.59489078  0.73644818  0.28592341     0.62900
H1345       H  0.64352272  0.73919880  0.25087685     0.12300
C1346       C  0.68302255  0.82908011  0.28544924     0.55100
H1347       H  0.63522310  0.82471214  0.32170816     0.08100
C1348       C  0.60141151  0.77460268  0.36254411    -0.05700
C1349       C  0.57931704  0.77487192  0.38470781    -0.06400
C1350       C  0.55153605  0.78612523  0.37770174    -0.16000
C1351       C  0.54518671  0.79738425  0.34765537    -0.01600
C1352       C  0.56724447  0.79685832  0.32533218    -0.09100
C1353       C  0.63157201  0.76315573  0.37135240     0.65100
H1354       H  0.58365579  0.76665215  0.40796319     0.10600
C1355       C  0.51505307  0.80883558  0.33894409     0.63500
H1356       H  0.56301620  0.80513786  0.30208957     0.08000
F1357       F  0.67768688  0.84962623  0.30855455    -0.19500
F1358       F  0.68249282  0.84370127  0.25728999    -0.15700
F1359       F  0.71044568  0.81724986  0.29087649    -0.19200
F1360       F  0.56834112  0.74910062  0.27811470    -0.22600
F1361       F  0.59298729  0.72337754  0.31479024    -0.24100
F1362       F  0.60079721  0.71465585  0.26430890    -0.18100
F1363       F  0.51289179  0.81613655  0.30774632    -0.20600
F1364       F  0.50867148  0.83371822  0.35615370    -0.21700
F1365       F  0.49466719  0.78751392  0.34483390    -0.18900
F1366       F  0.63287779  0.75307455  0.40170105    -0.19000
F1367       F  0.65153846  0.78543712  0.36859998    -0.22800
F1368       F  0.63937285  0.74017732  0.35199724    -0.24400
C1369       C  0.62374393  0.65340636  0.16645012    -0.11200
C1370       C  0.63086957  0.62333730  0.16631911     0.11300
C1371       C  0.66040292  0.61450448  0.16643020    -0.03100
C1372       C  0.68187181  0.63610422  0.16965565    -0.05800
C1373       C  0.67496570  0.66633973  0.17133734    -0.16600
C1374       C  0.64532412  0.67521950  0.16839200     0.02400
C1375       C  0.60700133  0.60145278  0.16681827     0.12300
C1376       C  0.66920185  0.58243697  0.16236717     0.68900
H1377       H  0.70446352  0.62932037  0.17113135     0.12300
C1378       C  0.63632298  0.70734013  0.16643503     0.55100
H1379       H  0.60096764  0.65964262  0.16547343     0.08100
C1380       C  0.59481804  0.59202198  0.19501511    -0.05700
C1381       C  0.57316140  0.57043334  0.19402858    -0.06400
C1382       C  0.56307671  0.55779433  0.16588947    -0.16000
C1383       C  0.57528860  0.56775776  0.13743807    -0.01600
C1384       C  0.59694216  0.58955930  0.13863462    -0.09100
C1385       C  0.60475032  0.60473225  0.22610962     0.65100
H1386       H  0.56396331  0.56326684  0.21569579     0.10600
C1387       C  0.56608696  0.55574435  0.10580660     0.63500
H1388       H  0.60659371  0.59743689  0.11744948     0.08000
F1389       F  0.63962773  0.72050752  0.19521618    -0.19500
F1390       F  0.60754664  0.71063298  0.15710954    -0.15700
F1391       F  0.65322214  0.72165100  0.14498466    -0.19200
F1392       F  0.66039313  0.57290113  0.13319882    -0.22600
F1393       F  0.65638563  0.56522237  0.18464729    -0.24100
F1394       F  0.69900240  0.57837113  0.16488762    -0.18100
F1395       F  0.53686239  0.56148962  0.10053235    -0.20600
F1396       F  0.57136561  0.52579165  0.10461457    -0.21700
F1397       F  0.58124337  0.56845351  0.08181159    -0.18900
F1398       F  0.59047371  0.59220942  0.25082387    -0.19000
F1399       F  0.59925170  0.63464670  0.22669870    -0.22800
F1400       F  0.63421341  0.59980676  0.23051007    -0.24400
C1401       C  0.88907902  0.70371430  0.12308865    -0.11200
C1402       C  0.88654822  0.71525534  0.09299831     0.11300
C1403       C  0.86119076  0.73091384  0.08365019    -0.03100
C1404       C  0.83884249  0.73442457  0.10513281    -0.05800
C1405       C  0.84100767  0.72234363  0.13503035    -0.16600
C1406       C  0.86665126  0.70721602  0.14461080     0.02400
C1407       C  0.91012662  0.70931981  0.07102615     0.12300
C1408       C  0.85758361  0.74346665  0.05104123     0.62900
H1409       H  0.81899538  0.74593231  0.09843200     0.12300
C1410       C  0.87068406  0.69558022  0.17745994     0.55100
H1411       H  0.90866174  0.69157414  0.12938334     0.08100
C1412       C  0.93552645  0.72642525  0.07055040    -0.05700
C1413       C  0.95555786  0.72115742  0.04687103    -0.06400
C1414       C  0.95078790  0.69948269  0.02407728    -0.16000
C1415       C  0.92566022  0.68177658  0.02523965    -0.01600
C1416       C  0.90598261  0.68673892  0.04931313    -0.09100
C1417       C  0.94122453  0.75020917  0.09469575     0.65100
H1418       H  0.97512515  0.73411451  0.04584231     0.10600
C1419       C  0.91870854  0.65886112  0.00051512     0.63500
H1420       H  0.88650643  0.67368948  0.05083170     0.08000
F1421       F  0.89877173  0.68542597  0.18290002    -0.19500
F1422       F  0.85191993  0.67262933  0.18244765    -0.15700
F1423       F  0.86510429  0.71774848  0.19861068    -0.19200
F1424       F  0.85706560  0.72096094  0.02939983    -0.22600
F1425       F  0.88039538  0.76190362  0.04465366    -0.24100
F1426       F  0.83198217  0.75947675  0.04766832    -0.18100
F1427       F  0.93849280  0.63583871  0.00248114    -0.20600
F1428       F  0.91977851  0.67141579  0.97127996    -0.21700
F1429       F  0.89120738  0.64739632  0.00401829    -0.18900
F1430       F  0.96686439  0.76484896  0.08923788    -0.19000
F1431       F  0.94330194  0.73779200  0.12395741    -0.22800
F1432       F  0.91878689  0.77065693  0.09426823    -0.24400
C1433       C  0.74818671  0.88502386  0.11955425    -0.11200
C1434       C  0.74502489  0.87376746  0.08938425     0.11300
C1435       C  0.74417398  0.84290319  0.08500035    -0.03100
C1436       C  0.74550351  0.82438787  0.11136395    -0.05800
C1437       C  0.74758875  0.83564720  0.14188405    -0.16600
C1438       C  0.74923535  0.86674459  0.14598041     0.02400
C1439       C  0.74274374  0.89526103  0.06311678     0.12300
C1440       C  0.74177423  0.82961016  0.05263937     0.62900
H1441       H  0.74482191  0.80078400  0.10828453     0.12300
C1442       C  0.75278204  0.88102138  0.17783399     0.55100
H1443       H  0.74955955  0.90864438  0.12217814     0.08100
C1444       C  0.71716363  0.91208231  0.05736313    -0.05700
C1445       C  0.71721034  0.93366760  0.03389481    -0.06400
C1446       C  0.74190077  0.93918984  0.01589470    -0.16000
C1447       C  0.76730155  0.92141409  0.02103105    -0.01600
C1448       C  0.76728782  0.90022550  0.04500913    -0.09100
C1449       C  0.68999075  0.90763444  0.07636508     0.65100
H1450       H  0.69787376  0.94697628  0.03000397     0.10600
C1451       C  0.79432515  0.92407848  0.00131140     0.63500
H1452       H  0.78676386  0.88750185  0.05021831     0.08000
F1453       F  0.72800544  0.87683923  0.19501772    -0.19500
F1454       F  0.75707432  0.91102549  0.17576144    -0.15700
F1455       F  0.77661070  0.86898435  0.19331316    -0.19200
F1456       F  0.76597007  0.83663400  0.03562516    -0.22600
F1457       F  0.71718422  0.84041332  0.03755271    -0.24100
F1458       F  0.73993416  0.79927808  0.05357337    -0.18100
F1459       F  0.80752029  0.95075543  0.00700007    -0.20600
F1460       F  0.78686802  0.92179671  0.97009897    -0.21700
F1461       F  0.81455200  0.90212447  0.00786442    -0.18900
F1462       F  0.66648434  0.92341488  0.06446553    -0.19000
F1463       F  0.69487367  0.91686148  0.10662014    -0.22800
F1464       F  0.68266969  0.87824804  0.07641319    -0.24400
C1465       C  0.62094958  0.23221257  0.30331764    -0.11200
C1466       C  0.62431233  0.21290116  0.32850202     0.11300
C1467       C  0.65004017  0.19566082  0.33135877    -0.03100
C1468       C  0.67192974  0.19902194  0.30907377    -0.05800
C1469       C  0.66915855  0.21937466  0.28460039    -0.16600
C1470       C  0.64318089  0.23632252  0.28162301     0.02400
C1471       C  0.60059176  0.21170383  0.35172581     0.12300
C1472       C  0.65447576  0.17405847  0.35796556     0.62900
H1473       H  0.69177535  0.18609507  0.31095123     0.12300
C1474       C  0.63868863  0.25851461  0.25565088     0.55100
H1475       H  0.60082349  0.24465574  0.30126403     0.08100
C1476       C  0.59609309  0.23449791  0.37366732    -0.05700
C1477       C  0.57298137  0.23215609  0.39452765    -0.06400
C1478       C  0.55484164  0.20746268  0.39508401    -0.16000
C1479       C  0.55927054  0.18472756  0.37279458    -0.01600
C1480       C  0.58184096  0.18761673  0.35116473    -0.09100
C1481       C  0.61576564  0.26111329  0.37532365     0.65100
H1482       H  0.56911031  0.24976584  0.41091368     0.10600
C1483       C  0.53998090  0.15791232  0.37101450     0.63500
H1484       H  0.58526225  0.17087141  0.33361884     0.08000
F1485       F  0.61054597  0.26957442  0.25472838    -0.19500
F1486       F  0.64415912  0.24541891  0.22723222    -0.15700
F1487       F  0.65721019  0.28187989  0.26018227    -0.19200
F1488       F  0.63439592  0.15178312  0.35553587    -0.22600
F1489       F  0.65111196  0.18832534  0.38614871    -0.24100
F1490       F  0.68193896  0.16132729  0.35780016    -0.18100
F1491       F  0.51114751  0.16668555  0.36923847    -0.20600
F1492       F  0.54454712  0.14058106  0.39703556    -0.21700
F1493       F  0.54573216  0.14080336  0.34509691    -0.18900
F1494       F  0.60928629  0.27913932  0.40033972    -0.19000
F1495       F  0.61257524  0.27761861  0.34854434    -0.22800
F1496       F  0.64443716  0.25208793  0.37853993    -0.24400
C1497       C  0.75335044  0.40199397  0.35235955    -0.11200
C1498       C  0.77771346  0.38338796  0.35065104     0.11300
C1499       C  0.80243320  0.38927486  0.36952813    -0.03100
C1500       C  0.80180583  0.41391570  0.38950285    -0.05800
C1501       C  0.77725765  0.43260028  0.39156706    -0.16600
C1502       C  0.75227358  0.42620807  0.37280703     0.02400
C1503       C  0.77751591  0.36041634  0.32584497     0.12300
C1504       C  0.82934773  0.36966546  0.36857506     0.62900
H1505       H  0.82067522  0.41868244  0.40389105     0.12300
C1506       C  0.72457996  0.44475426  0.37353963     0.55100
H1507       H  0.73504871  0.39735432  0.33706828     0.08100
C1508       C  0.76156209  0.33411165  0.32809773    -0.05700
C1509       C  0.75901584  0.31584988  0.30163029    -0.06400
C1510       C  0.77126144  0.32324118  0.27280700    -0.16000
C1511       C  0.78783909  0.34959217  0.27103721    -0.01600
C1512       C  0.79049950  0.36749752  0.29767925    -0.09100
C1513       C  0.74692487  0.32556049  0.35817310     0.65100
H1514       H  0.74658709  0.29586753  0.30314880     0.10600
C1515       C  0.80208664  0.35985832  0.24131140     0.63500
H1516       H  0.80197967  0.38810606  0.29653445     0.08000
F1517       F  0.70447974  0.43595215  0.35120818    -0.19500
F1518       F  0.73084774  0.47388621  0.36793236    -0.15700
F1519       F  0.71167247  0.44213276  0.40222992    -0.19200
F1520       F  0.84128189  0.37028760  0.33928659    -0.22600
F1521       F  0.82207039  0.34109688  0.37560310    -0.24100
F1522       F  0.85042190  0.37856763  0.38979186    -0.18100
F1523       F  0.81647676  0.38620028  0.24532585    -0.20600
F1524       F  0.78127570  0.36407647  0.21817006    -0.21700
F1525       F  0.82238110  0.33919727  0.23193682    -0.18900
F1526       F  0.73285024  0.29891747  0.35548597    -0.19000
F1527       F  0.72652196  0.34661087  0.36628031    -0.22800
F1528       F  0.76744065  0.32310346  0.38181945    -0.24400
C1529       C  0.60767315  0.40866277  0.16475584    -0.11200
C1530       C  0.60332779  0.38679765  0.18706865     0.11300
C1531       C  0.57848645  0.38777471  0.20598125    -0.03100
C1532       C  0.55794097  0.41028037  0.20089242    -0.05800
C1533       C  0.56195239  0.43193352  0.17822191    -0.16600
C1534       C  0.58740665  0.43157484  0.16008918     0.02400
C1535       C  0.62634783  0.36430514  0.19127364     0.12300
C1536       C  0.57423440  0.36589622  0.23211779     0.62900
H1537       H  0.53871341  0.41151274  0.21509151     0.12300
C1538       C  0.59389738  0.45591245  0.13717381     0.55100
H1539       H  0.62737388  0.40775289  0.15127703     0.08100
C1540       C  0.62845289  0.33946439  0.17154510    -0.05700
C1541       C  0.65249930  0.32044413  0.17526690    -0.06400
C1542       C  0.67431224  0.32608302  0.19751291    -0.16000
C1543       C  0.67150113  0.35023718  0.21812328    -0.01600
C1544       C  0.64752420  0.36923780  0.21434914    -0.09100
C1545       C  0.60581706  0.33358256  0.14627145     0.65100
H1546       H  0.65503577  0.30158162  0.16008322     0.10600
C1547       C  0.69335565  0.35560579  0.24428709     0.63500
H1548       H  0.64532874  0.38849842  0.22902895     0.08000
F1549       F  0.57429320  0.45506962  0.11253543    -0.19500
F1550       F  0.62159887  0.45317282  0.12526805    -0.15700
F1551       F  0.59192410  0.48292357  0.15188835    -0.19200
F1552       F  0.59561381  0.36965519  0.25463829    -0.22600
F1553       F  0.57582061  0.33747216  0.22085568    -0.24100
F1554       F  0.54750978  0.36961686  0.24607364    -0.18100
F1555       F  0.72004802  0.36244790  0.23213715    -0.20600
F1556       F  0.69615759  0.33068013  0.26244630    -0.21700
F1557       F  0.68481994  0.37859629  0.26336889    -0.18900
F1558       F  0.61136386  0.30749656  0.13070203    -0.19000
F1559       F  0.60569905  0.35609751  0.12475924    -0.22800
F1560       F  0.57855034  0.33178336  0.15913127    -0.24400
C1561       C  0.71957100  0.11058018  0.04494496    -0.11200
C1562       C  0.74332168  0.11002990  0.06578835     0.11300
C1563       C  0.76532919  0.08831279  0.06207887    -0.03100
C1564       C  0.76249971  0.06755638  0.03781302    -0.05800
C1565       C  0.73839232  0.06752950  0.01728454    -0.16600
C1566       C  0.71682890  0.08998639  0.02042150     0.02400
C1567       C  0.74341796  0.13087462  0.09280320     0.12300
C1568       C  0.79159458  0.08684754  0.08390627     0.62900
H1569       H  0.77896742  0.05059977  0.03514260     0.12300
C1570       C  0.69136417  0.09287037  0.99770796     0.55100
H1571       H  0.70284487  0.12714470  0.04839909     0.08100
C1572       C  0.75290773  0.16028547  0.09066550    -0.05700
C1573       C  0.75376329  0.17780212  0.11790355    -0.06400
C1574       C  0.74509636  0.16705903  0.14708976    -0.16000
C1575       C  0.73472830  0.13765086  0.14873003    -0.01600
C1576       C  0.73377050  0.12041475  0.12140992    -0.09100
C1577       C  0.76204076  0.17304198  0.05972800     0.65100
H1578       H  0.76146790  0.20015275  0.11658205     0.10600
C1579       C  0.72581464  0.12364962  0.17916836     0.63500
H1580       H  0.72603692  0.09804142  0.12220142     0.08000
F1581       F  0.70133789  0.09277481  0.96749240    -0.19500
F1582       F  0.67591906  0.11879529  0.00212718    -0.15700
F1583       F  0.67247187  0.06981406  0.00166060    -0.19200
F1584       F  0.78283374  0.08090727  0.11382081    -0.22600
F1585       F  0.80598228  0.11333861  0.08379491    -0.24100
F1586       F  0.81112980  0.06508042  0.07522449    -0.18100
F1587       F  0.71903176  0.09425891  0.17552667    -0.20600
F1588       F  0.70146208  0.13787825  0.19053497    -0.21700
F1589       F  0.74839782  0.12532574  0.20067291    -0.18900
F1590       F  0.77137033  0.20174038  0.06277991    -0.19000
F1591       F  0.73877160  0.17285086  0.03903741    -0.22800
F1592       F  0.78452388  0.15653269  0.04746086    -0.24400
C1593       C  0.88663956  0.29561905  0.12356084    -0.11200
C1594       C  0.88855352  0.27703076  0.09762317     0.11300
C1595       C  0.86734972  0.25506895  0.09277175    -0.03100
C1596       C  0.84404161  0.25332545  0.11353727    -0.05800
C1597       C  0.84133140  0.27283683  0.13868974    -0.16600
C1598       C  0.86325474  0.29401076  0.14424736     0.02400
C1599       C  0.91317239  0.28079193  0.07597547     0.12300
C1600       C  0.86925740  0.23377450  0.06559022     0.62900
H1601       H  0.82733900  0.23702450  0.10993016     0.12300
C1602       C  0.86240536  0.31430623  0.17229338     0.55100
H1603       H  0.90351868  0.31171850  0.12720403     0.08100
C1604       C  0.91231292  0.30187256  0.05180861    -0.05700
C1605       C  0.93491735  0.30188683  0.03005550    -0.06400
C1606       C  0.95843768  0.28200533  0.03225736    -0.16000
C1607       C  0.96067020  0.26301987  0.05836981    -0.01600
C1608       C  0.93770132  0.26255183  0.07964232    -0.09100
C1609       C  0.88780279  0.32439949  0.04932049     0.65100
H1610       H  0.93420662  0.31726103  0.01087674     0.10600
C1611       C  0.98754640  0.24412400  0.06449930     0.63500
H1612       H  0.93841306  0.24746989  0.09909627     0.08000
F1613       F  0.83961733  0.33414367  0.16903694    -0.19500
F1614       F  0.88778894  0.33012371  0.17569471    -0.15700
F1615       F  0.85887352  0.29796675  0.19904202    -0.19200
F1616       F  0.89469797  0.21744624  0.06786615    -0.22600
F1617       F  0.86894239  0.24913945  0.03788903    -0.24100
F1618       F  0.84625659  0.21441247  0.06490568    -0.18100
F1619       F  0.98741466  0.23184830  0.09392961    -0.20600
F1620       F  0.01219449  0.26109212  0.06241970    -0.21700
F1621       F  0.98889260  0.22149865  0.04305335    -0.18900
F1622       F  0.89053567  0.34220320  0.02348863    -0.19000
F1623       F  0.88808895  0.34219211  0.07544260    -0.22800
F1624       F  0.86131567  0.31045810  0.04710824    -0.24400
C1625       C  0.22037625  0.37478863  0.41183586    -0.11200
C1626       C  0.20227465  0.37478936  0.38537736     0.11300
C1627       C  0.17814276  0.39428582  0.38360070    -0.03100
C1628       C  0.17497693  0.41567116  0.40698876    -0.05800
C1629       C  0.19491948  0.41761687  0.43193679    -0.16600
C1630       C  0.21662158  0.39549694  0.43572478     0.02400
C1631       C  0.20983647  0.35507001  0.35921927     0.12300
C1632       C  0.15657458  0.39316278  0.35653273     0.62900
H1633       H  0.15807341  0.43230414  0.40473591     0.12300
C1634       C  0.23681149  0.39367618  0.46388649     0.55100
H1635       H  0.23808649  0.35892162  0.41338913     0.08100
C1636       C  0.23064211  0.36307261  0.33690278    -0.05700
C1637       C  0.23557158  0.34414296  0.31156927    -0.06400
C1638       C  0.21998336  0.31804179  0.30782230    -0.16000
C1639       C  0.19978467  0.30963685  0.33079942    -0.01600
C1640       C  0.19536495  0.32831687  0.35640747    -0.09100
C1641       C  0.24729513  0.39162060  0.33977564     0.65100
H1642       H  0.25119874  0.34989849  0.29406191     0.10600
C1643       C  0.18309683  0.28102029  0.32863635     0.63500
H1644       H  0.17993465  0.32260380  0.37413219     0.08000
F1645       F  0.26320040  0.40601093  0.45671309    -0.19500
F1646       F  0.24142963  0.36459220  0.47210879    -0.15700
F1647       F  0.22533636  0.40789605  0.48949322    -0.19200
F1648       F  0.14327849  0.36607418  0.35577626    -0.22600
F1649       F  0.17073112  0.39746226  0.32879731    -0.24100
F1650       F  0.13506575  0.41450898  0.35904784    -0.18100
F1651       F  0.20207239  0.25777504  0.32349878    -0.20600
F1652       F  0.16292110  0.28259199  0.30453855    -0.21700
F1653       F  0.16826336  0.27526898  0.35570778    -0.18900
F1654       F  0.26555699  0.39575152  0.31489886    -0.19000
F1655       F  0.26409195  0.39131383  0.36668857    -0.22800
F1656       F  0.22811774  0.41519087  0.34081016    -0.24400
C1657       C  0.39803326  0.18303416  0.36067866    -0.11200
C1658       C  0.38729616  0.21072025  0.35212811     0.11300
C1659       C  0.39542286  0.23589521  0.36917661    -0.03100
C1660       C  0.41657737  0.23278464  0.39268048    -0.05800
C1661       C  0.42909519  0.20526203  0.40036723    -0.16600
C1662       C  0.41851000  0.17956545  0.38503166     0.02400
C1663       C  0.36736324  0.21287369  0.32513545     0.12300
C1664       C  0.38159607  0.26583584  0.36268469     0.62900
H1665       H  0.42349172  0.25219753  0.40519937     0.12300
C1666       C  0.42821657  0.14861350  0.39384079     0.55100
H1667       H  0.39036852  0.16415447  0.34768087     0.08100
C1668       C  0.37776588  0.21654139  0.29465462    -0.05700
C1669       C  0.35757374  0.22236321  0.27067212    -0.06400
C1670       C  0.32764955  0.22410750  0.27640154    -0.16000
C1671       C  0.31723160  0.21785666  0.30657120    -0.01600
C1672       C  0.33752236  0.21244527  0.33057608    -0.09100
C1673       C  0.40998699  0.21439706  0.28766789     0.65100
H1674       H  0.36511058  0.22663471  0.24737889     0.10600
C1675       C  0.28508435  0.21580459  0.31337576     0.63500
H1676       H  0.33034309  0.20863901  0.35409818     0.08000
F1677       F  0.41341480  0.12743123  0.37692564    -0.19500
F1678       F  0.42284311  0.14371644  0.42495826    -0.15700
F1679       F  0.45750161  0.14487893  0.38815590    -0.19200
F1680       F  0.35209209  0.26469950  0.36811239    -0.22600
F1681       F  0.38585002  0.27381099  0.33209938    -0.24100
F1682       F  0.39318583  0.28757136  0.38157508    -0.18100
F1683       F  0.28024862  0.20557897  0.34313898    -0.20600
F1684       F  0.27232385  0.19634813  0.29270675    -0.21700
F1685       F  0.27195599  0.24315165  0.31081406    -0.18900
F1686       F  0.41544356  0.21948775  0.25656845    -0.19000
F1687       F  0.42017609  0.18652591  0.29494604    -0.22800
F1688       F  0.42526004  0.23478686  0.30508255    -0.24400
C1689       C  0.36571089  0.36007170  0.22737407    -0.11200
C1690       C  0.36903843  0.37299138  0.19800166     0.11300
C1691       C  0.35064828  0.36434201  0.17294149    -0.03100
C1692       C  0.32991648  0.34240007  0.17802815    -0.05800
C1693       C  0.32701217  0.32913489  0.20719224    -0.16600
C1694       C  0.34473537  0.33830937  0.23246268     0.02400
C1695       C  0.39261752  0.39479322  0.19382394     0.12300
C1696       C  0.35329384  0.37781814  0.14082522     0.62900
H1697       H  0.31635524  0.33469560  0.15894903     0.12300
C1698       C  0.34195853  0.32440139  0.26429537     0.55100
H1699       H  0.38015783  0.36674338  0.24614027     0.08100
C1700       C  0.38972250  0.42440206  0.20363730    -0.05700
C1701       C  0.41273550  0.44387037  0.19828973    -0.06400
C1702       C  0.43821501  0.43467685  0.18333165    -0.16000
C1703       C  0.44123540  0.40497994  0.17383618    -0.01600
C1704       C  0.41838330  0.38542621  0.17956572    -0.09100
C1705       C  0.36250875  0.43527417  0.21981863     0.65100
H1706       H  0.41102551  0.46657199  0.20576046     0.10600
C1707       C  0.46879517  0.39385301  0.15859355     0.63500
H1708       H  0.42032664  0.36256286  0.17276711     0.08000
F1709       F  0.31376957  0.32781491  0.27455570    -0.19500
F1710       F  0.36040907  0.33712515  0.28605582    -0.15700
F1711       F  0.34870298  0.29476600  0.26250705    -0.19200
F1712       F  0.37985972  0.37030192  0.12832448    -0.22600
F1713       F  0.35101645  0.40807944  0.14278914    -0.24100
F1714       F  0.33173917  0.36810928  0.12061334    -0.18100
F1715       F  0.49245812  0.39952207  0.17775594    -0.20600
F1716       F  0.47236452  0.40779506  0.13040363    -0.21700
F1717       F  0.46806199  0.36387740  0.15309408    -0.18900
F1718       F  0.36313809  0.46526705  0.22520051    -0.19000
F1719       F  0.36002618  0.42134452  0.24816577    -0.22800
F1720       F  0.33819744  0.42934659  0.20169804    -0.24400
C1721       C  0.15124233  0.29065912  0.12429627    -0.11200
C1722       C  0.12993171  0.27030584  0.11583785     0.11300
C1723       C  0.12598026  0.24462237  0.13371974    -0.03100
C1724       C  0.14402342  0.24008054  0.15981709    -0.05800
C1725       C  0.16562092  0.26020585  0.16793518    -0.16600
C1726       C  0.16922067  0.28609169  0.15044954     0.02400
C1727       C  0.11279690  0.27584648  0.08731422     0.12300
C1728       C  0.10339958  0.22182944  0.12483521     0.62900
H1729       H  0.14209992  0.22027517  0.17354857     0.12300
C1730       C  0.19208653  0.30846377  0.15925913     0.55100
H1731       H  0.15395692  0.30989441  0.10987994     0.08100
C1732       C  0.08847902  0.29506215  0.08698428    -0.05700
C1733       C  0.07189032  0.29732379  0.05951442    -0.06400
C1734       C  0.07876359  0.28063024  0.03311724    -0.16000
C1735       C  0.10405085  0.26262743  0.03296755    -0.01600
C1736       C  0.12098173  0.26089251  0.06026312    -0.09100
C1737       C  0.07976259  0.31245122  0.11565828     0.65100
H1738       H  0.05260758  0.31119621  0.05884642     0.10600
C1739       C  0.11327673  0.24556964  0.00425466     0.63500
H1740       H  0.14022017  0.24695922  0.06114444     0.08000
F1741       F  0.19046642  0.33309871  0.14045549    -0.19500
F1742       F  0.21940254  0.29605476  0.15627233    -0.15700
F1743       F  0.18832909  0.31738932  0.18972776    -0.19200
F1744       F  0.11069330  0.20869368  0.09695480    -0.22600
F1745       F  0.07630070  0.23498938  0.12173020    -0.24100
F1746       F  0.10155034  0.19999614  0.14706300    -0.18100
F1747       F  0.14079843  0.23335427  0.00794621    -0.20600
F1748       F  0.11367770  0.26412187  0.97883116    -0.21700
F1749       F  0.09413885  0.22295089  0.99841242    -0.18900
F1750       F  0.05473486  0.32897622  0.11043176    -0.19000
F1751       F  0.10173169  0.33146544  0.12410700    -0.22800
F1752       F  0.07471669  0.29354776  0.14006090    -0.24400
C1753       C  0.25123954  0.15318388  0.08216420    -0.11200
C1754       C  0.27044483  0.12918978  0.08391165     0.11300
C1755       C  0.29040430  0.12665317  0.10915520    -0.03100
C1756       C  0.28952955  0.14792024  0.13290287    -0.05800
C1757       C  0.26969356  0.17152340  0.13169156    -0.16600
C1758       C  0.25059661  0.17469793  0.10563728     0.02400
C1759       C  0.27009008  0.10746329  0.05833450     0.12300
C1760       C  0.31275955  0.10182306  0.11061939     0.62900
H1761       H  0.30429671  0.14626703  0.15268343     0.12300
C1762       C  0.23048151  0.20124690  0.10194106     0.55100
H1763       H  0.23675960  0.15488565  0.06214422     0.08100
C1764       C  0.25109199  0.08326145  0.05819333    -0.05700
C1765       C  0.25492141  0.06136819  0.03555560    -0.06400
C1766       C  0.27723353  0.06291532  0.01372177    -0.16000
C1767       C  0.29429405  0.08857954  0.01202418    -0.01600
C1768       C  0.29025573  0.11063402  0.03451414    -0.09100
C1769       C  0.22738412  0.08028808  0.08217744     0.65100
H1770       H  0.24127077  0.04214900  0.03561715     0.10600
C1771       C  0.31621863  0.09299241  0.98647159     0.63500
H1772       H  0.30375197  0.12999327  0.03457907     0.08000
F1773       F  0.21750977  0.20222159  0.07270113    -0.19500
F1774       F  0.24612019  0.22681382  0.10597946    -0.15700
F1775       F  0.20865013  0.20026756  0.12365126    -0.19200
F1776       F  0.33144191  0.10399470  0.08585980    -0.22600
F1777       F  0.29908513  0.07494345  0.10922172    -0.24100
F1778       F  0.32922795  0.10269887  0.13779095    -0.18100
F1779       F  0.32624479  0.12157001  0.98598595    -0.20600
F1780       F  0.30339923  0.08720147  0.95784588    -0.21700
F1781       F  0.33985465  0.07443293  0.99100600    -0.18900
F1782       F  0.21146975  0.05492077  0.07774200    -0.19000
F1783       F  0.20844276  0.10400213  0.08004578    -0.22800
F1784       F  0.23948594  0.07940963  0.11177223    -0.24400
C1785       C  0.14534928  0.85693007  0.25376351    -0.11200
C1786       C  0.11596288  0.84996995  0.25643031     0.11300
C1787       C  0.10717835  0.82035779  0.25742308    -0.03100
C1788       C  0.12865754  0.79834251  0.25577739    -0.05800
C1789       C  0.15806530  0.80520178  0.25158680    -0.16600
C1790       C  0.16678393  0.83500041  0.25137366     0.02400
C1791       C  0.09493430  0.87452854  0.25637614     0.12300
C1792       C  0.07529175  0.81211615  0.25891443     0.62900
H1793       H  0.12237259  0.77549618  0.25596394     0.12300
C1794       C  0.19833004  0.84393711  0.24833631     0.55100
H1795       H  0.15125283  0.87988527  0.25259484     0.08100
C1796       C  0.08994365  0.89149754  0.28326218    -0.05700
C1797       C  0.07143179  0.91600393  0.28080316    -0.06400
C1798       C  0.05787776  0.92405960  0.25242341    -0.16000
C1799       C  0.06266438  0.90644890  0.22546771    -0.01600
C1800       C  0.08156496  0.88211614  0.22806130    -0.09100
C1801       C  0.10457256  0.88407573  0.31424292     0.65100
H1802       H  0.06790164  0.92941726  0.30124870     0.10600
C1803       C  0.04807272  0.91264473  0.19414622     0.63500
H1804       H  0.08645011  0.86881596  0.20782498     0.08000
F1805       F  0.20231586  0.87305805  0.25660420    -0.19500
F1806       F  0.20694507  0.84048279  0.21785099    -0.15700
F1807       F  0.21590925  0.82691552  0.26765645    -0.19200
F1808       F  0.06086014  0.82155664  0.23228722    -0.22600
F1809       F  0.06256833  0.82510674  0.28449545    -0.24100
F1810       F  0.07173471  0.78202799  0.26119068    -0.18100
F1811       F  0.05792404  0.93891958  0.18238020    -0.20600
F1812       F  0.01822176  0.91396487  0.19744775    -0.21700
F1813       F  0.05407806  0.89091123  0.17248198    -0.18900
F1814       F  0.09468343  0.90195343  0.33804045    -0.19000
F1815       F  0.13425001  0.88768475  0.31210232    -0.22800
F1816       F  0.09902248  0.85529335  0.32219473    -0.24400
C1817       C  0.88059934  0.84249180  0.22867763    -0.11200
C1818       C  0.87496330  0.86849666  0.24508859     0.11300
C1819       C  0.84754752  0.87301687  0.25869484    -0.03100
C1820       C  0.82572673  0.85226840  0.25314361    -0.05800
C1821       C  0.83056406  0.82661428  0.23530991    -0.16600
C1822       C  0.85926100  0.82077996  0.22457009     0.02400
C1823       C  0.89783132  0.89117100  0.24698028     0.12300
C1824       C  0.84131691  0.89978885  0.27888215     0.62900
H1825       H  0.80433181  0.85658073  0.26229934     0.12300
C1826       C  0.86807848  0.79166490  0.21000678     0.55100
H1827       H  0.90196361  0.83943398  0.21885787     0.08100
C1828       C  0.92141683  0.88920428  0.26833533    -0.05700
C1829       C  0.94120253  0.91250157  0.26991345    -0.06400
C1830       C  0.93870400  0.93691002  0.25006291    -0.16000
C1831       C  0.91525404  0.93859864  0.22827683    -0.01600
C1832       C  0.89518310  0.91551965  0.22719239    -0.09100
C1833       C  0.92619085  0.86223823  0.28859445     0.65100
H1834       H  0.95954798  0.91128230  0.28594500     0.10600
C1835       C  0.91094731  0.96470933  0.20664460     0.63500
H1836       H  0.87710523  0.91621454  0.21077633     0.08000
F1837       F  0.85890231  0.76893002  0.22861097    -0.19500
F1838       F  0.89795743  0.78895535  0.20740064    -0.15700
F1839       F  0.85598469  0.78911070  0.18051457    -0.19200
F1840       F  0.84228298  0.92504366  0.26118467    -0.22600
F1841       F  0.86178623  0.90155687  0.30265298    -0.24100
F1842       F  0.81418231  0.89850521  0.29226889    -0.18100
F1843       F  0.88416211  0.96411790  0.19156731    -0.20600
F1844       F  0.93215217  0.96438447  0.18418962    -0.21700
F1845       F  0.91245394  0.99066081  0.22341375    -0.18900
F1846       F  0.94868607  0.86611459  0.30988566    -0.19000
F1847       F  0.93310067  0.83838662  0.27004459    -0.22800
F1848       F  0.90135256  0.85611572  0.30495566    -0.24400
C1849       C  0.88216689  0.15590883  0.25795852    -0.11200
C1850       C  0.88015406  0.12680675  0.24753369     0.11300
C1851       C  0.85509039  0.11733990  0.23114824    -0.03100
C1852       C  0.83293067  0.13789102  0.22488412    -0.05800
C1853       C  0.83494720  0.16721109  0.23483580    -0.16600
C1854       C  0.85990779  0.17656505  0.25173605     0.02400
C1855       C  0.90518732  0.10681276  0.25266127     0.12300
C1856       C  0.85154775  0.08556288  0.22084566     0.62900
H1857       H  0.81353409  0.13110284  0.21234969     0.12300
C1858       C  0.86285052  0.20782910  0.26374478     0.55100
H1859       H  0.90158936  0.16233911  0.27065470     0.08100
C1860       C  0.92844008  0.10581498  0.23163379    -0.05700
C1861       C  0.94931357  0.08336713  0.23491721    -0.06400
C1862       C  0.94792790  0.06248748  0.25885146    -0.16000
C1863       C  0.92560696  0.06488287  0.28133493    -0.01600
C1864       C  0.90448942  0.08722156  0.27766023    -0.09100
C1865       C  0.93078092  0.12806751  0.20551933     0.65100
H1866       H  0.96675986  0.08169274  0.21835812     0.10600
C1867       C  0.92318909  0.04359480  0.30836299     0.63500
H1868       H  0.88662774  0.08909286  0.29370236     0.08000
F1869       F  0.86479732  0.22699131  0.23897569    -0.19500
F1870       F  0.88749020  0.21115760  0.28223251    -0.15700
F1871       F  0.83898661  0.21533618  0.28140824    -0.19200
F1872       F  0.85025031  0.06766878  0.24670931    -0.22600
F1873       F  0.87475263  0.07678189  0.20286152    -0.24100
F1874       F  0.82635670  0.08163692  0.20339336    -0.18100
F1875       F  0.94692551  0.04658462  0.32817889    -0.20600
F1876       F  0.92197758  0.01502960  0.29735601    -0.21700
F1877       F  0.89844295  0.04879743  0.32556752    -0.18900
F1878       F  0.95499113  0.12291276  0.18748753    -0.19000
F1879       F  0.93298201  0.15602533  0.21792214    -0.22800
F1880       F  0.90645005  0.12685985  0.18633453    -0.24400
C1881       C  0.09036537  0.09944462  0.26250674    -0.11200
C1882       C  0.11771681  0.08957997  0.25271449     0.11300
C1883       C  0.12273650  0.05922615  0.24748713    -0.03100
C1884       C  0.09924040  0.03983159  0.25012997    -0.05800
C1885       C  0.07160428  0.04995954  0.25881754    -0.16600
C1886       C  0.06707372  0.08004064  0.26563278     0.02400
C1887       C  0.14019690  0.11202422  0.24729571     0.12300
C1888       C  0.15271802  0.04753731  0.23934438     0.62900
H1889       H  0.10216876  0.01663083  0.24523829     0.12300
C1890       C  0.03745385  0.09157591  0.27513067     0.55100
H1891       H  0.08726569  0.12270881  0.26692112     0.08100
C1892       C  0.14038702  0.12873904  0.21952489    -0.05700
C1893       C  0.16011377  0.15196756  0.21723304    -0.06400
C1894       C  0.17904013  0.15903779  0.24187826    -0.16000
C1895       C  0.17996735  0.14141235  0.26891721    -0.01600
C1896       C  0.16021558  0.11815204  0.27130314    -0.09100
C1897       C  0.11898772  0.12294592  0.19301153     0.65100
H1898       H  0.15986238  0.16583412  0.19677544     0.10600
C1899       C  0.20209868  0.14695794  0.29469482     0.63500
H1900       H  0.15972188  0.10500925  0.29224898     0.08000
F1901       F  0.01718569  0.08525095  0.25212327    -0.19500
F1902       F  0.03736778  0.12169845  0.27968362    -0.15700
F1903       F  0.02938742  0.07839632  0.30258480    -0.19200
F1904       F  0.17187223  0.05303524  0.26368252    -0.22600
F1905       F  0.16260714  0.06111616  0.21286054    -0.24100
F1906       F  0.15259832  0.01752588  0.23398575    -0.18100
F1907       F  0.19741807  0.17435451  0.30776576    -0.20600
F1908       F  0.22976123  0.14576274  0.28255223    -0.21700
F1909       F  0.20056887  0.12618562  0.31806507    -0.18900
F1910       F  0.12509620  0.13951697  0.16699488    -0.19000
F1911       F  0.09114019  0.13001186  0.20229428    -0.22800
F1912       F  0.12004566  0.09366007  0.18446246    -0.24400
loop_ 
_geom_bond_atom_site_label_1 
_geom_bond_atom_site_label_2 
_geom_bond_distance 
_geom_bond_site_symmetry_2 
_ccdc_geom_bond_type 
O1           Ni9   1.911       .  S
O1           C11   1.278       .  A
O2           Ni9   1.913   1_645  S
O2           C12   1.283       .  A
O3           Ni9   1.912   1_545  S
O3           C13   1.279       .  A
O4           Ni9   1.910   1_655  S
O4           C14   1.278       .  A
O5          Ni10   1.921   1_655  S
O5           C14   1.283       .  A
O6          Ni10   1.925   1_545  S
O6           C13   1.282       .  A
O7          Ni10   1.907   1_645  S
O7           C12   1.277       .  A
O8          Ni10   1.902       .  S
O8           C11   1.280       .  A
Ni9         Ni10   2.386       .  S
C11        C1798   1.485       .  S
C12        C1862   1.481       .  S
C13        C1885   1.472       .  S
C14        C1830   1.481       .  S
O15         Ni21   1.913       .  S
O15          C36   1.265       .  A
O16         Ni39   1.884       .  S
O16          C25   1.260       .  A
O17         Ni21   1.913       .  S
O17         Ni39   1.892       .  S
O17         Ni33   1.915       .  S
O17          H40   0.959       .  S
C18          O35   1.273       .  A
C18          O27   1.274       .  A
C18        C1693   1.477       .  S
O19         Ni38   1.939       .  S
O19          C25   1.273       .  A
O20         Ni38   1.906       .  S
O20          C22   1.271       .  A
Ni21         O24   1.921       .  S
Ni21         O26   1.904       .  S
C22          O32   1.272       .  A
C22        C1670   1.474       .  S
O23         Ni39   1.919       .  S
O23          C29   1.274       .  A
O24          C29   1.275       .  A
C25        C1757   1.475       .  S
O26          C28   1.265       .  A
O27         Ni38   1.933       .  S
C28          O34   1.265       .  A
C28        C1725   1.457       .  S
C29        C1894   1.472       .  S
H30          O31   0.964       .  S
O31         Ni39   1.918       .  S
O31         Ni33   1.916       .  S
O31         Ni38   1.917       .  S
O32         Ni33   1.929       .  S
Ni33         O37   1.917       .  S
Ni33         O35   1.915       .  S
O34         Ni39   1.906       .  S
C36          O37   1.269       .  A
C36        C1638   1.477       .  S
O41         Ni47   1.938       .  S
O41          C62   1.273       .  A
O42         Ni65   1.908       .  S
O42          C51   1.267       .  A
O43         Ni47   1.919       .  S
O43         Ni65   1.910       .  S
O43         Ni59   1.896       .  S
O43          H66   0.966       .  S
C44          O61   1.263       .  A
C44          O53   1.271       .  A
C44        C1542   1.468       .  S
O45         Ni64   1.929       .  S
O45          C51   1.270       .  A
O46         Ni64   1.905       .  S
O46          C48   1.268       .  A
Ni47         O50   1.926       .  S
Ni47         O52   1.917       .  S
C48          O58   1.281       .  A
C48        C1510   1.506       .  S
O49         Ni65   1.900       .  S
O49          C55   1.268       .  A
O50          C55   1.274       .  A
C51        C1597   1.484       .  S
O52          C54   1.270       .  A
O53         Ni64   1.936       .  S
C54          O60   1.277       .  A
C54        C1574   1.506       .  S
C55        C1853   1.474       .  S
H56          O57   0.966       .  S
O57         Ni65   1.921       .  S
O57         Ni59   1.919       .  S
O57         Ni64   1.927       .  S
O58         Ni59   1.956       .  S
Ni59         O63   1.905       .  S
Ni59         O61   1.895       .  S
O60         Ni65   1.949       .  S
C62          O63   1.265       .  A
C62        C1469   1.490       .  S
O67         Ni73   1.934       .  S
O67          C88   1.271       .  A
O68         Ni91   1.905       .  S
O68          C77   1.270       .  A
O69         Ni73   1.909       .  S
O69         Ni91   1.902       .  S
O69         Ni85   1.916       .  S
O69          H92   0.966       .  S
C70          O87   1.277       .  A
C70          O79   1.278       .  A
C70        C1821   1.502       .  S
O71         Ni90   1.923       .  S
O71          C77   1.269       .  A
O72         Ni90   1.917       .  S
O72          C74   1.269       .  A
Ni73         O76   1.928       .  S
Ni73         O78   1.910       .  S
C74          O84   1.274       .  A
C74        C1437   1.503       .  S
O75         Ni91   1.929       .  S
O75          C81   1.279       .  A
O76          C81   1.279       .  A
C77        C1341   1.483       .  S
O78          C80   1.269       .  A
O79         Ni90   1.919       .  S
C80          O86   1.273       .  A
C80        C1318   1.490       .  S
C81        C1373   1.499       .  S
H82          O83   0.966       .  S
O83         Ni91   1.917       .  S
O83         Ni85   1.892       .  S
O83         Ni90   1.901       .  S
O84         Ni85   1.937       .  S
Ni85         O89   1.890       .  S
Ni85         O87   1.928       .  S
O86         Ni91   1.937       .  S
C88          O89   1.264       .  A
C88        C1405   1.467       .  S
O93         Ni99   1.920       .  S
O93         C114   1.269       .  A
O94        Ni117   1.896       .  S
O94         C103   1.264       .  A
O95         Ni99   1.901       .  S
O95        Ni117   1.906       .  S
O95        Ni111   1.907       .  S
O95         H118   0.966       .  S
C96         O113   1.272       .  A
C96         O105   1.276       .  A
C96        C1789   1.474       .  S
O97        Ni116   1.920       .  S
O97         C103   1.265       .  A
O98        Ni116   1.904       .  S
O98         C100   1.265       .  A
Ni99        O102   1.926       .  S
Ni99        O104   1.892       .  S
C100        O110   1.266       .  A
C100       C1277   1.461       .  S
O101       Ni117   1.893       .  S
O101        C107   1.266       .  A
O102        C107   1.275       .  A
C103       C1190   1.468       .  S
O104        C106   1.262       .  A
O105       Ni116   1.916       .  S
C106        O112   1.276       .  A
C106       C1149   1.491       .  S
C107       C1213   1.476       .  S
H108        O109   0.966       .  S
O109       Ni117   1.901       .  S
O109       Ni111   1.897       .  S
O109       Ni116   1.915       .  S
O110       Ni111   1.910       .  S
Ni111       O115   1.899       .  S
Ni111       O113   1.904       .  S
O112       Ni117   1.946       .  S
C114        O115   1.264       .  A
C114       C1245   1.466       .  S
O119       Ni127   1.918       .  S
O119        C129   1.280       .  A
O120       Ni127   1.917   1_545  S
O120        C130   1.281       .  A
O121       Ni127   1.920   1_554  S
O121        C131   1.282       .  A
O122       Ni127   1.920   1_545  S
O122        C132   1.283       .  A
O123       Ni128   1.903   1_545  S
O123        C132   1.277       .  A
O124       Ni128   1.903       .  S
O124        C131   1.277   1_556  A
O125       Ni128   1.908   1_545  S
O125        C130   1.279       .  A
O126       Ni128   1.905       .  S
O126        C129   1.279       .  A
Ni127      Ni128   2.390       .  S
C129       C1117   1.465       .  S
C130       C1766   1.474   1_556  S
C131       C1254   1.469       .  S
C132       C1094   1.480       .  S
O133       Ni141   1.921   1_655  S
O133        C143   1.282   1_556  A
O134       Ni141   1.919       .  S
O134        C144   1.280       .  A
O135       Ni141   1.910   1_655  S
O135        C145   1.279       .  A
O136       Ni141   1.909       .  S
O136        C146   1.280   1_556  A
O137       Ni142   1.901       .  S
O137        C146   1.277   1_556  A
O138       Ni142   1.906   1_655  S
O138        C145   1.278       .  A
O139       Ni142   1.918       .  S
O139        C144   1.282       .  A
O140       Ni142   1.922   1_655  S
O140        C143   1.282   1_556  A
Ni141      Ni142   2.389       .  S
C143       C1606   1.486       .  S
C144       C1053   1.489       .  S
C145       C1021   1.463       .  S
C146       C1734   1.464       .  S
O147       Ni155   1.929       .  S
O147        C157   1.282       .  A
O148       Ni155   1.930   1_565  S
O148        C158   1.285       .  A
O149       Ni155   1.930       .  S
O149        C159   1.283       .  A
O150       Ni155   1.928   1_565  S
O150        C160   1.283       .  A
O151       Ni156   1.920   1_565  S
O151        C160   1.281       .  A
O152       Ni156   1.925       .  S
O152        C159   1.283       .  A
O153       Ni156   1.920   1_565  S
O153        C158   1.280       .  A
O154       Ni156   1.917       .  S
O154        C157   1.283       .  A
Ni155      Ni156   2.378       .  S
C157        C998   1.503       .  S
C158       C1446   1.505   1_556  S
C159       C1565   1.499   1_556  S
C160        C966   1.488       .  S
O161       Ni169   1.920       .  S
O161        C171   1.282       .  A
O162       Ni169   1.924   1_655  S
O162        C172   1.283       .  A
O163       Ni169   1.909       .  S
O163        C173   1.278       .  A
O164       Ni169   1.906   1_655  S
O164        C174   1.278       .  A
O165       Ni170   1.905   1_655  S
O165        C174   1.280       .  A
O166       Ni170   1.901       .  S
O166        C173   1.280       .  A
O167       Ni170   1.901   1_655  S
O167        C172   1.276       .  A
O168       Ni170   1.899       .  S
O168        C171   1.276       .  A
Ni169      Ni170   2.388       .  S
C171       C1286   1.467   1_556  S
C172        C934   1.482       .  S
C173        C902   1.474       .  S
C174       C1414   1.471   1_556  S
O175       Ni181   1.927       .  S
O175        C196   1.269       .  A
O176       Ni199   1.915       .  S
O176        C185   1.268       .  A
O177       Ni181   1.906       .  S
O177       Ni199   1.903       .  S
O177       Ni193   1.911       .  S
O177        H200   0.966       .  S
C178        O195   1.277       .  A
C178        O187   1.275       .  A
C178        C893   1.456       .  S
O179       Ni198   1.906       .  S
O179        C185   1.261       .  A
O180       Ni198   1.899       .  S
O180        C182   1.267       .  A
Ni181       O184   1.927       .  S
Ni181       O186   1.905       .  S
C182        O192   1.272       .  A
C182        C861   1.503       .  S
O183       Ni199   1.903       .  S
O183        C189   1.275       .  A
O184        C189   1.277       .  A
C185        C765   1.479       .  S
O186        C188   1.266       .  A
O187       Ni198   1.910       .  S
C188        O194   1.271       .  A
C188        C838   1.487       .  S
C189        C797   1.469       .  S
H190        O191   0.966       .  S
O191       Ni199   1.909       .  S
O191       Ni193   1.892       .  S
O191       Ni198   1.899       .  S
O192       Ni193   1.936       .  S
Ni193       O197   1.910       .  S
Ni193       O195   1.912       .  S
O194       Ni199   1.926       .  S
C196        O197   1.270       .  A
C196       C1126   1.489       .  S
O201       Ni209   1.909   1_655  S
O201        C211   1.279       .  A
O202       Ni209   1.908   1_545  S
O202        C212   1.278       .  A
O203       Ni209   1.921   1_645  S
O203        C213   1.280       .  A
O204       Ni209   1.919       .  S
O204        C214   1.282       .  A
O205       Ni210   1.927       .  S
O205        C214   1.282       .  A
O206       Ni210   1.924   1_645  S
O206        C213   1.284       .  A
O207       Ni210   1.908   1_545  S
O207        C212   1.280       .  A
O208       Ni210   1.909   1_655  S
O208        C211   1.279       .  A
Ni209      Ni210   2.385       .  S
C211        C669   1.466       .  S
C212        C733   1.473       .  S
C213        C701   1.502       .  S
C214        C870   1.491       .  S
O215       Ni221   1.943       .  S
O215        C236   1.276       .  A
O216       Ni239   1.898       .  S
O216        C225   1.266       .  A
O217       Ni221   1.904       .  S
O217       Ni239   1.899       .  S
O217       Ni233   1.909       .  S
O217        H240   0.965       .  S
C218        O235   1.275       .  A
C218        O227   1.277       .  A
C218        C742   1.490       .  S
O219       Ni238   1.920       .  S
O219        C225   1.268       .  A
O220       Ni238   1.911       .  S
O220        C222   1.268       .  A
Ni221       O224   1.944       .  S
Ni221       O226   1.900       .  S
C222        O232   1.268       .  A
C222       C1062   1.480       .  S
O223       Ni239   1.895       .  S
O223        C229   1.268       .  A
O224        C229   1.280       .  A
C225        C605   1.467       .  S
O226        C228   1.267       .  A
O227       Ni238   1.911       .  S
C228        O234   1.277       .  A
C228        C573   1.490       .  S
C229        C646   1.483       .  S
H230        O231   0.966       .  S
O231       Ni239   1.897       .  S
O231       Ni233   1.886       .  S
O231       Ni238   1.901       .  S
O232       Ni233   1.920       .  S
Ni233       O237   1.886       .  S
Ni233       O235   1.920       .  S
O234       Ni239   1.941       .  S
C236        O237   1.264       .  A
C236       C1085   1.473       .  S
O241       Ni247   1.934       .  S
O241        C262   1.272       .  A
O242       Ni265   1.895       .  S
O242        C251   1.262       .  A
O243       Ni247   1.916       .  S
O243       Ni265   1.899       .  S
O243       Ni259   1.920       .  S
O243        H266   0.965       .  S
C244        O261   1.276       .  A
C244        O253   1.278       .  A
C244        C710   1.496       .  S
O245       Ni264   1.928       .  S
O245        C251   1.272       .  A
O246       Ni264   1.906       .  S
O246        C248   1.269       .  A
Ni247       O250   1.936       .  S
Ni247       O252   1.911       .  S
C248        O258   1.272       .  A
C248        C989   1.496       .  S
O249       Ni265   1.923       .  S
O249        C255   1.274       .  A
O250        C255   1.276       .  A
C251        C518   1.480       .  S
O252        C254   1.267       .  A
O253       Ni264   1.928       .  S
C254        O260   1.274       .  A
C254        C477   1.506       .  S
C255        C541   1.489       .  S
H256        O257   0.966       .  S
O257       Ni265   1.915       .  S
O257       Ni259   1.895       .  S
O257       Ni264   1.910       .  S
O258       Ni259   1.932       .  S
Ni259       O263   1.888       .  S
Ni259       O261   1.928       .  S
O260       Ni265   1.929       .  S
C262        O263   1.265       .  A
C262       C1030   1.479       .  S
O267       Ni273   1.940       .  S
O267        C288   1.273       .  A
O268       Ni291   1.904       .  S
O268        C277   1.265       .  A
O269       Ni273   1.914       .  S
O269       Ni291   1.903       .  S
O269       Ni285   1.905       .  S
O269        H292   0.966       .  S
C270        O287   1.272       .  A
C270        O279   1.276       .  A
C270        C445   1.494       .  S
O271       Ni290   1.927       .  S
O271        C277   1.269       .  A
O272       Ni290   1.904       .  S
O272        C274   1.268       .  A
Ni273       O276   1.935       .  S
Ni273       O278   1.911       .  S
C274        O284   1.272       .  A
C274        C413   1.481       .  S
O275       Ni291   1.895       .  S
O275        C281   1.268       .  A
O276        C281   1.276       .  A
C277        C925   1.471       .  S
O278        C280   1.272       .  A
O279       Ni290   1.919       .  S
C280        O286   1.274       .  A
C280        C957   1.510       .  S
C281        C678   1.464       .  S
H282        O283   0.966       .  S
O283       Ni291   1.907       .  S
O283       Ni285   1.902       .  S
O283       Ni290   1.915       .  S
O284       Ni285   1.932       .  S
Ni285       O289   1.893       .  S
Ni285       O287   1.914       .  S
O286       Ni291   1.947       .  S
C288        O289   1.266       .  A
C288        C390   1.482       .  S
O293       Ni301   1.912       .  S
O293        C303   1.279       .  A
O294       Ni301   1.913       .  S
O294        C304   1.279       .  A
O295       Ni301   1.926       .  S
O295        C305   1.282       .  A
O296       Ni301   1.932       .  S
O296        C306   1.285       .  A
O297       Ni302   1.916       .  S
O297        C306   1.279       .  A
O298       Ni302   1.915       .  S
O298        C305   1.279       .  A
O299       Ni302   1.924       .  S
O299        C304   1.282       .  A
O300       Ni302   1.921       .  S
O300        C303   1.283       .  A
Ni301      Ni302   2.385       .  S
C303        C637   1.489       .  S
C304        C454   1.477       .  S
C305        C829   1.475       .  S
C306        C550   1.495       .  S
O307       Ni315   1.914       .  S
O307        C317   1.279       .  A
O308       Ni315   1.913       .  S
O308        C318   1.279       .  A
O309       Ni315   1.929       .  S
O309        C319   1.282       .  A
O310       Ni315   1.929       .  S
O310        C320   1.283       .  A
O311       Ni316   1.920       .  S
O311        C320   1.281       .  A
O312       Ni316   1.920       .  S
O312        C319   1.284       .  A
O313       Ni316   1.902       .  S
O313        C318   1.279       .  A
O314       Ni316   1.905       .  S
O314        C317   1.279       .  A
Ni315      Ni316   2.384       .  S
C317       C1533   1.471       .  S
C318       C1222   1.475       .  S
C319       C1382   1.508       .  S
C320       C1702   1.483       .  S
O321       Ni329   1.931       .  S
O321        C331   1.283       .  A
O322       Ni329   1.928       .  S
O322        C332   1.283       .  A
O323       Ni329   1.913       .  S
O323        C333   1.281       .  A
O324       Ni329   1.917       .  S
O324        C334   1.279       .  A
O325       Ni330   1.930       .  S
O325        C334   1.285       .  A
O326       Ni330   1.931       .  S
O326        C333   1.283       .  A
O327       Ni330   1.917       .  S
O327        C332   1.279       .  A
O328       Ni330   1.922       .  S
O328        C331   1.281       .  A
Ni329      Ni330   2.384       .  S
C331       C1309   1.481       .  S
C332        C486   1.485       .  S
C333        C422   1.490       .  S
C334       C1501   1.499       .  S
O335       Ni343   1.908       .  S
O335        C345   1.280       .  A
O336       Ni343   1.909       .  S
O336        C346   1.281       .  A
O337       Ni343   1.916       .  S
O337        C347   1.281       .  A
O338       Ni343   1.912       .  S
O338        C348   1.279       .  A
O339       Ni344   1.908       .  S
O339        C348   1.280       .  A
O340       Ni344   1.912       .  S
O340        C347   1.279       .  A
O341       Ni344   1.924       .  S
O341        C346   1.282       .  A
O342       Ni344   1.923       .  S
O342        C345   1.282       .  A
Ni343      Ni344   2.389       .  S
C345        C381   1.480       .  S
C346       C1158   1.484       .  S
C347       C1350   1.471       .  S
C348        C806   1.471       .  S
O349       Ni357   1.906       .  S
O349        C359   1.279       .  A
O350       Ni357   1.904       .  S
O350        C360   1.278       .  A
O351       Ni357   1.900       .  S
O351        C361   1.278       .  A
O352       Ni357   1.895       .  S
O352        C362   1.276       .  A
O353       Ni358   1.906       .  S
O353        C362   1.280       .  A
O354       Ni358   1.910       .  S
O354        C361   1.280       .  A
O355       Ni358   1.920       .  S
O355        C360   1.282       .  A
O356       Ni358   1.920       .  S
O356        C359   1.282       .  A
Ni357      Ni358   2.391       .  S
C359       C1629   1.477       .  S
C360        C774   1.473       .  S
C361        C614   1.464       .  S
C362       C1181   1.462       .  S
O363       Ni371   1.916       .  S
O363        C373   1.280       .  A
O364       Ni371   1.919       .  S
O364        C374   1.282       .  A
O365       Ni371   1.904       .  S
O365        C375   1.281       .  A
O366       Ni371   1.902       .  S
O366        C376   1.277       .  A
O367       Ni372   1.914       .  S
O367        C376   1.280       .  A
O368       Ni372   1.915       .  S
O368        C375   1.279       .  A
O369       Ni372   1.927       .  S
O369        C374   1.282       .  A
O370       Ni372   1.924       .  S
O370        C373   1.281       .  A
Ni371      Ni372   2.386       .  S
C373        C582   1.474       .  S
C374       C1478   1.497       .  S
C375       C1661   1.491       .  S
C376        C509   1.459       .  S
C377        C378   1.402       .  A
C377        C382   1.408       .  A
C377        H387   1.083       .  S
C378        C383   1.480       .  S
C378        C379   1.413       .  A
C379        C380   1.404       .  A
C379        C384   1.521       .  S
C380        C381   1.406       .  A
C380        H385   1.083       .  S
C381        C382   1.418       .  A
C382        C386   1.518       .  S
C383        C388   1.414       .  A
C383        C392   1.401       .  A
C384        F400   1.382       .  S
C384        F401   1.381       .  S
C384        F402   1.385       .  S
C386        F397   1.385       .  S
C386        F398   1.383       .  S
C386        F399   1.383       .  S
C388        C389   1.405       .  A
C388        C393   1.521       .  S
C389        C390   1.406       .  A
C389        H394   1.083       .  S
C390        C391   1.420       .  A
C391        C392   1.407       .  A
C391        C395   1.519       .  S
C392        H396   1.083       .  S
C393        F406   1.385       .  S
C393        F407   1.382       .  S
C393        F408   1.381       .  S
C395        F403   1.383       .  S
C395        F404   1.383       .  S
C395        F405   1.385       .  S
C409        C410   1.405       .  A
C409        C414   1.411       .  A
C409        H419   1.083       .  S
C410        C415   1.487       .  S
C410        C411   1.416       .  A
C411        C412   1.405       .  A
C411        C416   1.520       .  S
C412        C413   1.404       .  A
C412        H417   1.083       .  S
C413        C414   1.417       .  A
C414        C418   1.517       .  S
C415        C420   1.414       .  A
C415        C424   1.402       .  A
C416        F432   1.382       .  S
C416        F433   1.382       .  S
C416        F434   1.385       .  S
C418        F429   1.382       .  S
C418        F430   1.385       .  S
C418        F431   1.384       .  S
C420        C421   1.407       .  A
C420        C425   1.520       .  S
C421        C422   1.407       .  A
C421        H426   1.083       .  S
C422        C423   1.422       .  A
C423        C424   1.411       .  A
C423        C427   1.518       .  S
C424        H428   1.083       .  S
C425        F438   1.384       .  S
C425        F439   1.382       .  S
C425        F440   1.382       .  S
C427        F435   1.383       .  S
C427        F436   1.384       .  S
C427        F437   1.385       .  S
C441        C442   1.399       .  A
C441        C446   1.408       .  A
C441        H451   1.083       .  S
C442        C447   1.480       .  S
C442        C443   1.413       .  A
C443        C444   1.405       .  A
C443        C448   1.522       .  S
C444        C445   1.410       .  A
C444        H449   1.082       .  S
C445        C446   1.428       .  A
C446        C450   1.523       .  S
C447        C452   1.414       .  A
C447        C456   1.401       .  A
C448        F464   1.383       .  S
C448        F465   1.381       .  S
C448        F466   1.385       .  S
C450        F461   1.383       .  S
C450        F462   1.385       .  S
C450        F463   1.385       .  S
C452        C453   1.408       .  A
C452        C457   1.520       .  S
C453        C454   1.405       .  A
C453        H458   1.083       .  S
C454        C455   1.416       .  A
C455        C456   1.405       .  A
C455        C459   1.518       .  S
C456        H460   1.083       .  S
C457        F470   1.385       .  S
C457        F471   1.383       .  S
C457        F472   1.381       .  S
C459        F467   1.382       .  S
C459        F468   1.383       .  S
C459        F469   1.385       .  S
C473        C474   1.400       .  A
C473        C478   1.412       .  A
C473        H483   1.083       .  S
C474        C479   1.490       .  S
C474        C475   1.413       .  A
C475        C476   1.406       .  A
C475        C480   1.520       .  S
C476        C477   1.412       .  A
C476        H481   1.082       .  S
C477        C478   1.430       .  A
C478        C482   1.521       .  S
C479        C484   1.418       .  A
C479        C488   1.401       .  A
C480        F496   1.382       .  S
C480        F497   1.383       .  S
C480        F498   1.385       .  S
C482        F493   1.383       .  S
C482        F494   1.385       .  S
C482        F495   1.382       .  S
C484        C485   1.409       .  A
C484        C489   1.519       .  S
C485        C486   1.403       .  A
C485        H490   1.083       .  S
C486        C487   1.421       .  A
C487        C488   1.409       .  A
C487        C491   1.519       .  S
C488        H492   1.083       .  S
C489        F502   1.384       .  S
C489        F503   1.382       .  S
C489        F504   1.382       .  S
C491        F499   1.385       .  S
C491        F500   1.382       .  S
C491        F501   1.383       .  S
C505        C506   1.398       .  A
C505        C510   1.397       .  A
C505        H515   1.084       .  S
C506        C511   1.470       .  S
C506        C507   1.416       .  A
C507        C508   1.405       .  A
C507        C512   1.519       .  S
C508        C509   1.400       .  A
C508        H513   1.084       .  S
C509        C510   1.412       .  A
C510        C514   1.515       .  S
C511        C516   1.411       .  A
C511        C520   1.398       .  A
C512        F528   1.382       .  S
C512        F529   1.382       .  S
C512        F530   1.385       .  S
C514        F525   1.383       .  S
C514        F526   1.384       .  S
C514        F527   1.381       .  S
C516        C517   1.399       .  A
C516        C521   1.521       .  S
C517        C518   1.407       .  A
C517        H522   1.083       .  S
C518        C519   1.423       .  A
C519        C520   1.403       .  A
C519        C523   1.520       .  S
C520        H524   1.083       .  S
C521        F534   1.384       .  S
C521        F535   1.382       .  S
C521        F536   1.382       .  S
C523        F531   1.385       .  S
C523        F532   1.383       .  S
C523        F533   1.381       .  S
C537        C538   1.402       .  A
C537        C542   1.410       .  A
C537        H547   1.083       .  S
C538        C543   1.496       .  S
C538        C539   1.418       .  A
C539        C540   1.414       .  A
C539        C544   1.518       .  S
C540        C541   1.405       .  A
C540        H545   1.083       .  S
C541        C542   1.420       .  A
C542        C546   1.518       .  S
C543        C548   1.417       .  A
C543        C552   1.402       .  A
C544        F560   1.382       .  S
C544        F561   1.383       .  S
C544        F562   1.384       .  S
C546        F557   1.382       .  S
C546        F558   1.384       .  S
C546        F559   1.382       .  S
C548        C549   1.411       .  A
C548        C553   1.519       .  S
C549        C550   1.406       .  A
C549        H554   1.083       .  S
C550        C551   1.425       .  A
C551        C552   1.412       .  A
C551        C555   1.521       .  S
C552        H556   1.083       .  S
C553        F566   1.384       .  S
C553        F567   1.382       .  S
C553        F568   1.382       .  S
C555        F563   1.383       .  S
C555        F564   1.384       .  S
C555        F565   1.385       .  S
C569        C570   1.400       .  A
C569        C574   1.409       .  A
C569        H579   1.083       .  S
C570        C575   1.484       .  S
C570        C571   1.415       .  A
C571        C572   1.406       .  A
C571        C576   1.520       .  S
C572        C573   1.407       .  A
C572        H577   1.083       .  S
C573        C574   1.425       .  A
C574        C578   1.521       .  S
C575        C580   1.417       .  A
C575        C584   1.402       .  A
C576        F592   1.382       .  S
C576        F593   1.381       .  S
C576        F594   1.385       .  S
C578        F589   1.383       .  S
C578        F590   1.385       .  S
C578        F591   1.384       .  S
C580        C581   1.408       .  A
C580        C585   1.520       .  S
C581        C582   1.402       .  A
C581        H586   1.084       .  S
C582        C583   1.414       .  A
C583        C584   1.407       .  A
C583        C587   1.516       .  S
C584        H588   1.083       .  S
C585        F598   1.385       .  S
C585        F599   1.382       .  S
C585        F600   1.381       .  S
C587        F595   1.384       .  S
C587        F596   1.383       .  S
C587        F597   1.383       .  S
C601        C602   1.397       .  A
C601        C606   1.402       .  A
C601        H611   1.084       .  S
C602        C607   1.468       .  S
C602        C603   1.415       .  A
C603        C604   1.400       .  A
C603        C608   1.521       .  S
C604        C605   1.401       .  A
C604        H609   1.083       .  S
C605        C606   1.419       .  A
C606        C610   1.519       .  S
C607        C612   1.414       .  A
C607        C616   1.398       .  A
C608        F624   1.382       .  S
C608        F625   1.382       .  S
C608        F626   1.384       .  S
C610        F621   1.382       .  S
C610        F622   1.385       .  S
C610        F623   1.383       .  S
C612        C613   1.400       .  A
C612        C617   1.520       .  S
C613        C614   1.402       .  A
C613        H618   1.083       .  S
C614        C615   1.416       .  A
C615        C616   1.400       .  A
C615        C619   1.516       .  S
C616        H620   1.084       .  S
C617        F630   1.385       .  S
C617        F631   1.382       .  S
C617        F632   1.382       .  S
C619        F627   1.385       .  S
C619        F628   1.384       .  S
C619        F629   1.382       .  S
C633        C634   1.399       .  A
C633        C638   1.407       .  A
C633        H643   1.083       .  S
C634        C639   1.484       .  S
C634        C635   1.414       .  A
C635        C636   1.407       .  A
C635        C640   1.520       .  S
C636        C637   1.408       .  A
C636        H641   1.082       .  S
C637        C638   1.424       .  A
C638        C642   1.521       .  S
C639        C644   1.416       .  A
C639        C648   1.402       .  A
C640        F656   1.382       .  S
C640        F657   1.382       .  S
C640        F658   1.385       .  S
C642        F653   1.385       .  S
C642        F654   1.383       .  S
C642        F655   1.384       .  S
C644        C645   1.404       .  A
C644        C649   1.520       .  S
C645        C646   1.404       .  A
C645        H650   1.083       .  S
C646        C647   1.422       .  A
C647        C648   1.409       .  A
C647        C651   1.520       .  S
C648        H652   1.083       .  S
C649        F662   1.384       .  S
C649        F663   1.382       .  S
C649        F664   1.383       .  S
C651        F659   1.385       .  S
C651        F660   1.384       .  S
C651        F661   1.383       .  S
C665        C666   1.400       .  A
C665        C670   1.401       .  A
C665        H675   1.083       .  S
C666        C671   1.473       .  S
C666        C667   1.414       .  A
C667        C668   1.404       .  A
C667        C672   1.519       .  S
C668        C669   1.402       .  A
C668        H673   1.084       .  S
C669        C670   1.416       .  A
C670        C674   1.519       .  S
C671        C676   1.415       .  A
C671        C680   1.402       .  A
C672        F688   1.382       .  S
C672        F689   1.382       .  S
C672        F690   1.385       .  S
C674        F685   1.383       .  S
C674        F686   1.385       .  S
C674        F687   1.382       .  S
C676        C677   1.402       .  A
C676        C681   1.520       .  S
C677        C678   1.401       .  A
C677        H682   1.084       .  S
C678        C679   1.413       .  A
C679        C680   1.404       .  A
C679        C683   1.518       .  S
C680        H684   1.083       .  S
C681        F694   1.385       .  S
C681        F695   1.382       .  S
C681        F696   1.382       .  S
C683        F691   1.385       .  S
C683        F692   1.384       .  S
C683        F693   1.382       .  S
C697        C698   1.401       .  A
C697        C702   1.412       .  A
C697        H707   1.083       .  S
C698        C703   1.493       .  S
C698        C699   1.414       .  A
C699        C700   1.409       .  A
C699        C704   1.519       .  S
C700        C701   1.410       .  A
C700        H705   1.082       .  S
C701        C702   1.429       .  A
C702        C706   1.522       .  S
C703        C708   1.416       .  A
C703        C712   1.404       .  A
C704        F720   1.382       .  S
C704        F721   1.382       .  S
C704        F722   1.385       .  S
C706        F717   1.385       .  S
C706        F718   1.383       .  S
C706        F719   1.384       .  S
C708        C709   1.408       .  A
C708        C713   1.521       .  S
C709        C710   1.409       .  A
C709        H714   1.083       .  S
C710        C711   1.422       .  A
C711        C712   1.413       .  A
C711        C715   1.518       .  S
C712        H716   1.083       .  S
C713        F726   1.385       .  S
C713        F727   1.382       .  S
C713        F728   1.382       .  S
C715        F723   1.385       .  S
C715        F724   1.383       .  S
C715        F725   1.384       .  S
C729        C730   1.400       .  A
C729        C734   1.402       .  A
C729        H739   1.084       .  S
C730        C735   1.474       .  S
C730        C731   1.412       .  A
C731        C732   1.403       .  A
C731        C736   1.519       .  S
C732        C733   1.405       .  A
C732        H737   1.082       .  S
C733        C734   1.419       .  A
C734        C738   1.521       .  S
C735        C740   1.411       .  A
C735        C744   1.399       .  A
C736        F752   1.382       .  S
C736        F753   1.382       .  S
C736        F754   1.385       .  S
C738        F749   1.385       .  S
C738        F750   1.382       .  S
C738        F751   1.384       .  S
C740        C741   1.401       .  A
C740        C745   1.523       .  S
C741        C742   1.412       .  A
C741        H746   1.082       .  S
C742        C743   1.426       .  A
C743        C744   1.405       .  A
C743        C747   1.521       .  S
C744        H748   1.083       .  S
C745        F758   1.385       .  S
C745        F759   1.382       .  S
C745        F760   1.381       .  S
C747        F755   1.383       .  S
C747        F756   1.384       .  S
C747        F757   1.385       .  S
C761        C762   1.398       .  A
C761        C766   1.406       .  A
C761        H771   1.083       .  S
C762        C767   1.476       .  S
C762        C763   1.415       .  A
C763        C764   1.402       .  A
C763        C768   1.521       .  S
C764        C765   1.404       .  A
C764        H769   1.083       .  S
C765        C766   1.423       .  A
C766        C770   1.520       .  S
C767        C772   1.414       .  A
C767        C776   1.398       .  A
C768        F784   1.382       .  S
C768        F785   1.383       .  S
C768        F786   1.385       .  S
C770        F781   1.383       .  S
C770        F782   1.385       .  S
C770        F783   1.383       .  S
C772        C773   1.404       .  A
C772        C777   1.518       .  S
C773        C774   1.402       .  A
C773        H778   1.083       .  S
C774        C775   1.419       .  A
C775        C776   1.403       .  A
C775        C779   1.519       .  S
C776        H780   1.084       .  S
C777        F790   1.384       .  S
C777        F791   1.383       .  S
C777        F792   1.382       .  S
C779        F787   1.385       .  S
C779        F788   1.384       .  S
C779        F789   1.381       .  S
C793        C794   1.400       .  A
C793        C798   1.403       .  A
C793        H803   1.083       .  S
C794        C799   1.474       .  S
C794        C795   1.415       .  A
C795        C796   1.402       .  A
C795        C800   1.520       .  S
C796        C797   1.401       .  A
C796        H801   1.083       .  S
C797        C798   1.418       .  A
C798        C802   1.519       .  S
C799        C804   1.412       .  A
C799        C808   1.402       .  A
C800        F816   1.382       .  S
C800        F817   1.382       .  S
C800        F818   1.384       .  S
C802        F813   1.382       .  S
C802        F814   1.385       .  S
C802        F815   1.380       .  S
C804        C805   1.403       .  A
C804        C809   1.520       .  S
C805        C806   1.405       .  A
C805        H810   1.083       .  S
C806        C807   1.416       .  A
C807        C808   1.402       .  A
C807        C811   1.519       .  S
C808        H812   1.084       .  S
C809        F822   1.384       .  S
C809        F823   1.382       .  S
C809        F824   1.381       .  S
C811        F819   1.382       .  S
C811        F820   1.382       .  S
C811        F821   1.385       .  S
C825        C826   1.402       .  A
C825        C830   1.408       .  A
C825        H835   1.083       .  S
C826        C831   1.487       .  S
C826        C827   1.420       .  A
C827        C828   1.408       .  A
C827        C832   1.521       .  S
C828        C829   1.400       .  A
C828        H833   1.083       .  S
C829        C830   1.416       .  A
C830        C834   1.518       .  S
C831        C836   1.416       .  A
C831        C840   1.402       .  A
C832        F848   1.382       .  S
C832        F849   1.383       .  S
C832        F850   1.385       .  S
C834        F845   1.385       .  S
C834        F846   1.383       .  S
C834        F847   1.382       .  S
C836        C837   1.405       .  A
C836        C841   1.520       .  S
C837        C838   1.407       .  A
C837        H842   1.083       .  S
C838        C839   1.421       .  A
C839        C840   1.408       .  A
C839        C843   1.518       .  S
C840        H844   1.083       .  S
C841        F854   1.385       .  S
C841        F855   1.382       .  S
C841        F856   1.383       .  S
C843        F851   1.383       .  S
C843        F852   1.382       .  S
C843        F853   1.385       .  S
C857        C858   1.400       .  A
C857        C862   1.410       .  A
C857        H867   1.083       .  S
C858        C863   1.485       .  S
C858        C859   1.410       .  A
C859        C860   1.405       .  A
C859        C864   1.521       .  S
C860        C861   1.415       .  A
C860        H865   1.082       .  S
C861        C862   1.427       .  A
C862        C866   1.518       .  S
C863        C868   1.414       .  A
C863        C872   1.401       .  A
C864        F880   1.383       .  S
C864        F881   1.381       .  S
C864        F882   1.385       .  S
C866        F877   1.380       .  S
C866        F878   1.385       .  S
C866        F879   1.383       .  S
C868        C869   1.407       .  A
C868        C873   1.521       .  S
C869        C870   1.407       .  A
C869        H874   1.083       .  S
C870        C871   1.423       .  A
C871        C872   1.410       .  A
C871        C875   1.518       .  S
C872        H876   1.083       .  S
C873        F886   1.384       .  S
C873        F887   1.382       .  S
C873        F888   1.381       .  S
C875        F883   1.383       .  S
C875        F884   1.382       .  S
C875        F885   1.385       .  S
C889        C890   1.399       .  A
C889        C894   1.398       .  A
C889        H899   1.084       .  S
C890        C895   1.466       .  S
C890        C891   1.412       .  A
C891        C892   1.402       .  A
C891        C896   1.518       .  S
C892        C893   1.401       .  A
C892        H897   1.083       .  S
C893        C894   1.414       .  A
C894        C898   1.520       .  S
C895        C900   1.412       .  A
C895        C904   1.398       .  A
C896        F912   1.383       .  S
C896        F913   1.382       .  S
C896        F914   1.385       .  S
C898        F909   1.383       .  S
C898        F910   1.385       .  S
C898        F911   1.382       .  S
C900        C901   1.397       .  A
C900        C905   1.523       .  S
C901        C902   1.404       .  A
C901        H906   1.083       .  S
C902        C903   1.421       .  A
C903        C904   1.404       .  A
C903        C907   1.520       .  S
C904        H908   1.083       .  S
C905        F918   1.384       .  S
C905        F919   1.382       .  S
C905        F920   1.381       .  S
C907        F915   1.383       .  S
C907        F916   1.382       .  S
C907        F917   1.385       .  S
C921        C922   1.403       .  A
C921        C926   1.407       .  A
C921        H931   1.083       .  S
C922        C927   1.478       .  S
C922        C923   1.415       .  A
C923        C924   1.403       .  A
C923        C928   1.520       .  S
C924        C925   1.401       .  A
C924        H929   1.084       .  S
C925        C926   1.415       .  A
C926        C930   1.517       .  S
C927        C932   1.413       .  A
C927        C936   1.398       .  A
C928        F944   1.382       .  S
C928        F945   1.381       .  S
C928        F946   1.384       .  S
C930        F941   1.385       .  S
C930        F942   1.382       .  S
C930        F943   1.383       .  S
C932        C933   1.407       .  A
C932        C937   1.519       .  S
C933        C934   1.406       .  A
C933        H938   1.082       .  S
C934        C935   1.423       .  A
C935        C936   1.403       .  A
C935        C939   1.522       .  S
C936        H940   1.083       .  S
C937        F950   1.385       .  S
C937        F951   1.382       .  S
C937        F952   1.381       .  S
C939        F947   1.383       .  S
C939        F948   1.384       .  S
C939        F949   1.385       .  S
C953        C954   1.400       .  A
C953        C958   1.413       .  A
C953        H963   1.083       .  S
C954        C959   1.491       .  S
C954        C955   1.413       .  A
C955        C956   1.409       .  A
C955        C960   1.521       .  S
C956        C957   1.414       .  A
C956        H961   1.082       .  S
C957        C958   1.432       .  A
C958        C962   1.522       .  S
C959        C964   1.417       .  A
C959        C968   1.402       .  A
C960        F976   1.382       .  S
C960        F977   1.382       .  S
C960        F978   1.384       .  S
C962        F973   1.383       .  S
C962        F974   1.385       .  S
C962        F975   1.384       .  S
C964        C965   1.412       .  A
C964        C969   1.518       .  S
C965        C966   1.406       .  A
C965        H970   1.083       .  S
C966        C967   1.420       .  A
C967        C968   1.408       .  A
C967        C971   1.519       .  S
C968        H972   1.083       .  S
C969        F982   1.385       .  S
C969        F983   1.382       .  S
C969        F984   1.382       .  S
C971        F979   1.382       .  S
C971        F980   1.383       .  S
C971        F981   1.385       .  S
C985        C986   1.402       .  A
C985        C990   1.410       .  A
C985        H995   1.083       .  S
C986        C991   1.490       .  S
C986        C987   1.414       .  A
C987        C988   1.407       .  A
C987        C992   1.520       .  S
C988        C989   1.410       .  A
C988        H993   1.082       .  S
C989        C990   1.423       .  A
C990        C994   1.518       .  S
C991        C996   1.414       .  A
C991       C1000   1.400       .  A
C992       F1008   1.382       .  S
C992       F1009   1.382       .  S
C992       F1010   1.385       .  S
C994       F1005   1.385       .  S
C994       F1006   1.383       .  S
C994       F1007   1.382       .  S
C996        C997   1.406       .  A
C996       C1001   1.521       .  S
C997        C998   1.411       .  A
C997       H1002   1.082       .  S
C998        C999   1.428       .  A
C999       C1000   1.413       .  A
C999       C1003   1.520       .  S
C1000      H1004   1.083       .  S
C1001      F1014   1.385       .  S
C1001      F1015   1.382       .  S
C1001      F1016   1.383       .  S
C1003      F1011   1.385       .  S
C1003      F1012   1.383       .  S
C1003      F1013   1.384       .  S
C1017      C1018   1.401       .  A
C1017      C1022   1.401       .  A
C1017      H1027   1.083       .  S
C1018      C1023   1.473       .  S
C1018      C1019   1.414       .  A
C1019      C1020   1.403       .  A
C1019      C1024   1.519       .  S
C1020      C1021   1.402       .  A
C1020      H1025   1.084       .  S
C1021      C1022   1.413       .  A
C1022      C1026   1.518       .  S
C1023      C1028   1.414       .  A
C1023      C1032   1.398       .  A
C1024      F1040   1.382       .  S
C1024      F1041   1.382       .  S
C1024      F1042   1.385       .  S
C1026      F1037   1.384       .  S
C1026      F1038   1.382       .  S
C1026      F1039   1.383       .  S
C1028      C1029   1.402       .  A
C1028      C1033   1.521       .  S
C1029      C1030   1.406       .  A
C1029      H1034   1.083       .  S
C1030      C1031   1.421       .  A
C1031      C1032   1.403       .  A
C1031      C1035   1.519       .  S
C1032      H1036   1.083       .  S
C1033      F1046   1.384       .  S
C1033      F1047   1.382       .  S
C1033      F1048   1.383       .  S
C1035      F1043   1.382       .  S
C1035      F1044   1.384       .  S
C1035      F1045   1.385       .  S
C1049      C1050   1.399       .  A
C1049      C1054   1.408       .  A
C1049      H1059   1.083       .  S
C1050      C1055   1.483       .  S
C1050      C1051   1.414       .  A
C1051      C1052   1.406       .  A
C1051      C1056   1.520       .  S
C1052      C1053   1.408       .  A
C1052      H1057   1.083       .  S
C1053      C1054   1.424       .  A
C1054      C1058   1.520       .  S
C1055      C1060   1.416       .  A
C1055      C1064   1.401       .  A
C1056      F1072   1.383       .  S
C1056      F1073   1.383       .  S
C1056      F1074   1.384       .  S
C1058      F1069   1.384       .  S
C1058      F1070   1.385       .  S
C1058      F1071   1.383       .  S
C1060      C1061   1.405       .  A
C1060      C1065   1.520       .  S
C1061      C1062   1.404       .  A
C1061      H1066   1.083       .  S
C1062      C1063   1.419       .  A
C1063      C1064   1.407       .  A
C1063      C1067   1.518       .  S
C1064      H1068   1.083       .  S
C1065      F1078   1.384       .  S
C1065      F1079   1.382       .  S
C1065      F1080   1.383       .  S
C1067      F1075   1.384       .  S
C1067      F1076   1.382       .  S
C1067      F1077   1.384       .  S
C1081      C1082   1.400       .  A
C1081      C1086   1.403       .  A
C1081      H1091   1.083       .  S
C1082      C1087   1.477       .  S
C1082      C1083   1.413       .  A
C1083      C1084   1.406       .  A
C1083      C1088   1.519       .  S
C1084      C1085   1.405       .  A
C1084      H1089   1.083       .  S
C1085      C1086   1.418       .  A
C1086      C1090   1.520       .  S
C1087      C1092   1.414       .  A
C1087      C1096   1.400       .  A
C1088      F1104   1.383       .  S
C1088      F1105   1.382       .  S
C1088      F1106   1.384       .  S
C1090      F1101   1.383       .  S
C1090      F1102   1.385       .  S
C1090      F1103   1.383       .  S
C1092      C1093   1.402       .  A
C1092      C1097   1.520       .  S
C1093      C1094   1.404       .  A
C1093      H1098   1.083       .  S
C1094      C1095   1.422       .  A
C1095      C1096   1.405       .  A
C1095      C1099   1.520       .  S
C1096      H1100   1.083       .  S
C1097      F1110   1.384       .  S
C1097      F1111   1.382       .  S
C1097      F1112   1.382       .  S
C1099      F1107   1.382       .  S
C1099      F1108   1.383   1_545  S
C1099      F1109   1.385       .  S
C1113      C1114   1.400       .  A
C1113      C1118   1.400       .  A
C1113      H1123   1.085       .  S
C1114      C1119   1.477       .  S
C1114      C1115   1.412       .  A
C1115      C1116   1.405       .  A
C1115      C1120   1.518       .  S
C1116      C1117   1.405       .  A
C1116      H1121   1.084       .  S
C1117      C1118   1.417       .  A
C1118      C1122   1.518       .  S
C1119      C1124   1.415       .  A
C1119      C1128   1.397       .  A
C1120      F1136   1.382       .  S
C1120      F1137   1.382       .  S
C1120      F1138   1.385       .  S
C1122      F1133   1.383       .  S
C1122      F1134   1.383       .  S
C1122      F1135   1.379       .  S
C1124      C1125   1.404       .  A
C1124      C1129   1.521       .  S
C1125      C1126   1.406       .  A
C1125      H1130   1.081       .  S
C1126      C1127   1.424       .  A
C1127      C1128   1.405       .  A
C1127      C1131   1.518       .  S
C1128      H1132   1.083       .  S
C1129      F1142   1.384       .  S
C1129      F1143   1.382       .  S
C1129      F1144   1.383       .  S
C1131      F1139   1.382       .  S
C1131      F1140   1.384       .  S
C1131      F1141   1.385       .  S
C1145      C1146   1.396       .  A
C1145      C1150   1.403       .  A
C1145      H1155   1.083       .  S
C1146      C1151   1.483       .  S
C1146      C1147   1.414       .  A
C1147      C1148   1.409       .  A
C1147      C1152   1.518       .  S
C1148      C1149   1.408       .  A
C1148      H1153   1.083       .  S
C1149      C1150   1.429       .  A
C1150      C1154   1.524       .  S
C1151      C1156   1.415       .  A
C1151      C1160   1.402       .  A
C1152      F1168   1.382       .  S
C1152      F1169   1.383       .  S
C1152      F1170   1.384       .  S
C1154      F1165   1.384       .  S
C1154      F1166   1.385       .  S
C1154      F1167   1.383       .  S
C1156      C1157   1.403       .  A
C1156      C1161   1.521       .  S
C1157      C1158   1.405       .  A
C1157      H1162   1.083       .  S
C1158      C1159   1.421       .  A
C1159      C1160   1.409       .  A
C1159      C1163   1.519       .  S
C1160      H1164   1.083       .  S
C1161      F1174   1.385       .  S
C1161      F1175   1.382       .  S
C1161      F1176   1.382       .  S
C1163      F1171   1.382       .  S
C1163      F1172   1.382       .  S
C1163      F1173   1.385       .  S
C1177      C1178   1.398       .  A
C1177      C1182   1.400       .  A
C1177      H1187   1.084       .  S
C1178      C1183   1.465       .  S
C1178      C1179   1.414       .  A
C1179      C1180   1.398       .  A
C1179      C1184   1.521       .  S
C1180      C1181   1.401       .  A
C1180      H1185   1.083       .  S
C1181      C1182   1.417       .  A
C1182      C1186   1.519       .  S
C1183      C1188   1.413       .  A
C1183      C1192   1.396       .  A
C1184      F1200   1.382       .  S
C1184      F1201   1.382       .  S
C1184      F1202   1.385       .  S
C1186      F1197   1.385       .  S
C1186      F1198   1.384       .  S
C1186      F1199   1.382       .  S
C1188      C1189   1.400       .  A
C1188      C1193   1.521       .  S
C1189      C1190   1.403       .  A
C1189      H1194   1.083       .  S
C1190      C1191   1.420       .  A
C1191      C1192   1.400       .  A
C1191      C1195   1.519       .  S
C1192      H1196   1.084       .  S
C1193      F1206   1.385       .  S
C1193      F1207   1.382       .  S
C1193      F1208   1.383       .  S
C1195      F1203   1.385       .  S
C1195      F1204   1.383       .  S
C1195      F1205   1.382       .  S
C1209      C1210   1.401       .  A
C1209      C1214   1.405       .  A
C1209      H1219   1.083       .  S
C1210      C1215   1.473       .  S
C1210      C1211   1.413       .  A
C1211      C1212   1.399       .  A
C1211      C1216   1.522       .  S
C1212      C1213   1.405       .  A
C1212      H1217   1.083       .  S
C1213      C1214   1.420       .  A
C1214      C1218   1.520       .  S
C1215      C1220   1.413       .  A
C1215      C1224   1.400       .  A
C1216      F1232   1.382       .  S
C1216      F1233   1.382       .  S
C1216      F1234   1.385       .  S
C1218      F1229   1.383       .  S
C1218      F1230   1.385       .  S
C1218      F1231   1.383       .  S
C1220      C1221   1.400       .  A
C1220      C1225   1.521       .  S
C1221      C1222   1.405       .  A
C1221      H1226   1.083       .  S
C1222      C1223   1.419       .  A
C1223      C1224   1.403       .  A
C1223      C1227   1.519       .  S
C1224      H1228   1.083       .  S
C1225      F1238   1.385       .  S
C1225      F1239   1.382       .  S
C1225      F1240   1.383       .  S
C1227      F1235   1.382       .  S
C1227      F1236   1.384       .  S
C1227      F1237   1.385       .  S
C1241      C1242   1.403       .  A
C1241      C1246   1.404       .  A
C1241      H1251   1.083       .  S
C1242      C1247   1.475       .  S
C1242      C1243   1.412       .  A
C1243      C1244   1.402       .  A
C1243      C1248   1.519       .  S
C1244      C1245   1.403       .  A
C1244      H1249   1.084       .  S
C1245      C1246   1.414       .  A
C1246      C1250   1.519       .  S
C1247      C1252   1.417       .  A
C1247      C1256   1.399       .  A
C1248      F1264   1.382       .  S
C1248      F1265   1.382       .  S
C1248      F1266   1.385       .  S
C1250      F1261   1.384       .  S
C1250      F1262   1.383       .  S
C1250      F1263   1.384       .  S
C1252      C1253   1.403       .  A
C1252      C1257   1.521       .  S
C1253      C1254   1.401       .  A
C1253      H1258   1.083       .  S
C1254      C1255   1.416       .  A
C1255      C1256   1.403       .  A
C1255      C1259   1.518       .  S
C1256      H1260   1.083       .  S
C1257      F1270   1.385       .  S
C1257      F1271   1.382       .  S
C1257      F1272   1.382       .  S
C1259      F1267   1.381       .  S
C1259      F1268   1.383       .  S
C1259      F1269   1.385       .  S
C1273      C1274   1.402       .  A
C1273      C1278   1.402       .  A
C1273      H1283   1.083       .  S
C1274      C1279   1.475       .  S
C1274      C1275   1.415       .  A
C1275      C1276   1.404       .  A
C1275      C1280   1.519       .  S
C1276      C1277   1.400       .  A
C1276      H1281   1.084       .  S
C1277      C1278   1.411       .  A
C1278      C1282   1.517       .  S
C1279      C1284   1.415       .  A
C1279      C1288   1.400       .  A
C1280      F1296   1.382       .  S
C1280      F1297   1.382       .  S
C1280      F1298   1.384       .  S
C1282      F1293   1.382       .  S
C1282      F1294   1.384       .  S
C1282      F1295   1.383       .  S
C1284      C1285   1.404       .  A
C1284      C1289   1.520       .  S
C1285      C1286   1.402       .  A
C1285      H1290   1.083       .  S
C1286      C1287   1.415       .  A
C1287      C1288   1.402       .  A
C1287      C1291   1.519   1_554  S
C1288      H1292   1.083       .  S
C1289      F1302   1.384       .  S
C1289      F1303   1.382       .  S
C1289      F1304   1.382       .  S
C1291      F1299   1.385       .  S
C1291      F1300   1.382       .  S
C1291      F1301   1.384       .  S
C1305      C1306   1.401       .  A
C1305      C1310   1.406       .  A
C1305      H1315   1.085       .  S
C1306      C1311   1.492       .  S
C1306      C1307   1.418       .  A
C1307      C1308   1.412       .  A
C1307      C1312   1.519       .  S
C1308      C1309   1.405       .  A
C1308      H1313   1.083       .  S
C1309      C1310   1.420       .  A
C1310      C1314   1.517       .  S
C1311      C1316   1.418       .  A
C1311      C1320   1.401       .  A
C1312      F1328   1.382       .  S
C1312      F1329   1.382       .  S
C1312      F1330   1.384       .  S
C1314      F1325   1.383       .  S
C1314      F1326   1.383       .  S
C1314      F1327   1.378       .  S
C1316      C1317   1.412       .  A
C1316      C1321   1.520       .  S
C1317      C1318   1.407       .  A
C1317      H1322   1.083       .  S
C1318      C1319   1.422       .  A
C1319      C1320   1.408       .  A
C1319      C1323   1.520       .  S
C1320      H1324   1.083       .  S
C1321      F1334   1.385       .  S
C1321      F1335   1.382       .  S
C1321      F1336   1.382       .  S
C1323      F1331   1.385       .  S
C1323      F1332   1.382       .  S
C1323      F1333   1.381       .  S
C1337      C1338   1.400       .  A
C1337      C1342   1.408       .  A
C1337      H1347   1.083       .  S
C1338      C1343   1.480       .  S
C1338      C1339   1.413       .  A
C1339      C1340   1.402       .  A
C1339      C1344   1.519       .  S
C1340      C1341   1.404       .  A
C1340      H1345   1.081       .  S
C1341      C1342   1.424       .  A
C1342      C1346   1.521       .  S
C1343      C1348   1.416       .  A
C1343      C1352   1.402       .  A
C1344      F1360   1.382       .  S
C1344      F1361   1.382       .  S
C1344      F1362   1.385       .  S
C1346      F1357   1.385       .  S
C1346      F1358   1.383       .  S
C1346      F1359   1.384       .  S
C1348      C1349   1.403       .  A
C1348      C1353   1.520       .  S
C1349      C1350   1.401       .  A
C1349      H1354   1.084       .  S
C1350      C1351   1.416       .  A
C1351      C1352   1.407       .  A
C1351      C1355   1.518       .  S
C1352      H1356   1.083       .  S
C1353      F1366   1.385       .  S
C1353      F1367   1.382       .  S
C1353      F1368   1.382       .  S
C1355      F1363   1.385       .  S
C1355      F1364   1.382       .  S
C1355      F1365   1.383       .  S
C1369      C1370   1.404       .  A
C1369      C1374   1.413       .  A
C1369      H1379   1.083       .  S
C1370      C1375   1.491       .  S
C1370      C1371   1.413       .  A
C1371      C1372   1.406       .  A
C1371      C1376   1.520       .  S
C1372      C1373   1.411       .  A
C1372      H1377   1.082       .  S
C1373      C1374   1.422       .  A
C1374      C1378   1.517       .  S
C1375      C1380   1.413       .  A
C1375      C1384   1.400       .  A
C1376      F1392   1.383       .  S
C1376      F1393   1.382       .  S
C1376      F1394   1.385       .  S
C1378      F1389   1.381       .  S
C1378      F1390   1.385       .  S
C1378      F1391   1.384       .  S
C1380      C1381   1.407       .  A
C1380      C1385   1.521       .  S
C1381      C1382   1.413       .  A
C1381      H1386   1.081       .  S
C1382      C1383   1.430       .  A
C1383      C1384   1.414       .  A
C1383      C1387   1.520       .  S
C1384      H1388   1.083       .  S
C1385      F1398   1.385       .  S
C1385      F1399   1.382       .  S
C1385      F1400   1.382       .  S
C1387      F1395   1.383       .  S
C1387      F1396   1.383       .  S
C1387      F1397   1.385       .  S
C1401      C1402   1.400       .  A
C1401      C1406   1.404       .  A
C1401      H1411   1.083       .  S
C1402      C1407   1.471       .  S
C1402      C1403   1.414       .  A
C1403      C1404   1.400       .  A
C1403      C1408   1.521       .  S
C1404      C1405   1.401       .  A
C1404      H1409   1.084       .  S
C1405      C1406   1.416       .  A
C1406      C1410   1.518       .  S
C1407      C1412   1.412       .  A
C1407      C1416   1.399       .  A
C1408      F1424   1.382       .  S
C1408      F1425   1.382       .  S
C1408      F1426   1.384       .  S
C1410      F1421   1.385       .  S
C1410      F1422   1.382       .  S
C1410      F1423   1.381       .  S
C1412      C1413   1.402       .  A
C1412      C1417   1.520       .  S
C1413      C1414   1.405       .  A
C1413      H1418   1.083       .  S
C1414      C1415   1.418       .  A
C1415      C1416   1.401       .  A
C1415      C1419   1.520       .  S
C1416      H1420   1.083       .  S
C1417      F1430   1.385       .  S
C1417      F1431   1.382       .  S
C1417      F1432   1.382       .  S
C1419      F1427   1.382       .  S
C1419      F1428   1.384   1_554  S
C1419      F1429   1.385       .  S
C1433      C1434   1.399       .  A
C1433      C1438   1.410       .  A
C1433      H1443   1.083       .  S
C1434      C1439   1.498       .  S
C1434      C1435   1.418       .  A
C1435      C1436   1.414       .  A
C1435      C1440   1.519       .  S
C1436      C1437   1.410       .  A
C1436      H1441   1.083       .  S
C1437      C1438   1.428       .  A
C1438      C1442   1.522       .  S
C1439      C1444   1.416       .  A
C1439      C1448   1.402       .  A
C1440      F1456   1.382       .  S
C1440      F1457   1.382       .  S
C1440      F1458   1.385       .  S
C1442      F1453   1.383       .  S
C1442      F1454   1.385       .  S
C1442      F1455   1.383       .  S
C1444      C1445   1.410       .  A
C1444      C1449   1.519       .  S
C1445      C1446   1.409       .  A
C1445      H1450   1.082       .  S
C1446      C1447   1.429       .  A
C1447      C1448   1.413       .  A
C1447      C1451   1.521       .  S
C1448      H1452   1.083       .  S
C1449      F1462   1.384       .  S
C1449      F1463   1.382       .  S
C1449      F1464   1.383       .  S
C1451      F1459   1.383       .  S
C1451      F1460   1.384   1_554  S
C1451      F1461   1.385       .  S
C1465      C1466   1.402       .  A
C1465      C1470   1.409       .  A
C1465      H1475   1.083       .  S
C1466      C1471   1.492       .  S
C1466      C1467   1.417       .  A
C1467      C1468   1.410       .  A
C1467      C1472   1.520       .  S
C1468      C1469   1.407       .  A
C1468      H1473   1.083       .  S
C1469      C1470   1.420       .  A
C1470      C1474   1.518       .  S
C1471      C1476   1.416       .  A
C1471      C1480   1.402       .  A
C1472      F1488   1.382       .  S
C1472      F1489   1.383       .  S
C1472      F1490   1.385       .  S
C1474      F1485   1.384       .  S
C1474      F1486   1.383       .  S
C1474      F1487   1.382       .  S
C1476      C1477   1.406       .  A
C1476      C1481   1.521       .  S
C1477      C1478   1.408       .  A
C1477      H1482   1.081       .  S
C1478      C1479   1.423       .  A
C1479      C1480   1.412       .  A
C1479      C1483   1.518       .  S
C1480      H1484   1.083       .  S
C1481      F1494   1.385       .  S
C1481      F1495   1.382       .  S
C1481      F1496   1.383       .  S
C1483      F1491   1.383       .  S
C1483      F1492   1.383       .  S
C1483      F1493   1.385       .  S
C1497      C1498   1.400       .  A
C1497      C1502   1.409       .  A
C1497      H1507   1.083       .  S
C1498      C1503   1.491       .  S
C1498      C1499   1.415       .  A
C1499      C1500   1.411       .  A
C1499      C1504   1.520       .  S
C1500      C1501   1.410       .  A
C1500      H1505   1.082       .  S
C1501      C1502   1.427       .  A
C1502      C1506   1.522       .  S
C1503      C1508   1.415       .  A
C1503      C1512   1.398       .  A
C1504      F1520   1.382       .  S
C1504      F1521   1.381       .  S
C1504      F1522   1.385       .  S
C1506      F1517   1.385       .  S
C1506      F1518   1.382       .  S
C1506      F1519   1.383       .  S
C1508      C1509   1.411       .  A
C1508      C1513   1.520       .  S
C1509      C1510   1.412       .  A
C1509      H1514   1.082       .  S
C1510      C1511   1.431       .  A
C1511      C1512   1.409       .  A
C1511      C1515   1.522       .  S
C1512      H1516   1.083       .  S
C1513      F1526   1.385       .  S
C1513      F1527   1.382       .  S
C1513      F1528   1.381       .  S
C1515      F1523   1.385       .  S
C1515      F1524   1.383       .  S
C1515      F1525   1.381       .  S
C1529      C1530   1.402       .  A
C1529      C1534   1.404       .  A
C1529      H1539   1.083       .  S
C1530      C1535   1.475       .  S
C1530      C1531   1.413       .  A
C1531      C1532   1.402       .  A
C1531      C1536   1.520       .  S
C1532      C1533   1.403       .  A
C1532      H1537   1.083       .  S
C1533      C1534   1.416       .  A
C1534      C1538   1.519       .  S
C1535      C1540   1.415       .  A
C1535      C1544   1.400       .  A
C1536      F1552   1.382       .  S
C1536      F1553   1.381       .  S
C1536      F1554   1.385       .  S
C1538      F1549   1.382       .  S
C1538      F1550   1.385       .  S
C1538      F1551   1.384       .  S
C1540      C1541   1.405       .  A
C1540      C1545   1.520       .  S
C1541      C1542   1.402       .  A
C1541      H1546   1.083       .  S
C1542      C1543   1.416       .  A
C1543      C1544   1.402       .  A
C1543      C1547   1.519       .  S
C1544      H1548   1.083       .  S
C1545      F1558   1.384       .  S
C1545      F1559   1.382       .  S
C1545      F1560   1.382       .  S
C1547      F1555   1.381       .  S
C1547      F1556   1.383       .  S
C1547      F1557   1.385       .  S
C1561      C1562   1.403       .  A
C1561      C1566   1.414       .  A
C1561      H1571   1.083       .  S
C1562      C1567   1.498       .  S
C1562      C1563   1.418       .  A
C1563      C1564   1.411       .  A
C1563      C1568   1.520       .  S
C1564      C1565   1.408       .  A
C1564      H1569   1.083       .  S
C1565      C1566   1.424       .  A
C1566      C1570   1.519   1_554  S
C1567      C1572   1.416       .  A
C1567      C1576   1.400       .  A
C1568      F1584   1.382       .  S
C1568      F1585   1.382       .  S
C1568      F1586   1.385       .  S
C1570      F1581   1.384       .  S
C1570      F1582   1.385   1_556  S
C1570      F1583   1.382   1_556  S
C1572      C1573   1.415       .  A
C1572      C1577   1.519       .  S
C1573      C1574   1.412       .  A
C1573      H1578   1.083       .  S
C1574      C1575   1.428       .  A
C1575      C1576   1.411       .  A
C1575      C1579   1.521       .  S
C1576      H1580   1.083       .  S
C1577      F1590   1.385       .  S
C1577      F1591   1.382       .  S
C1577      F1592   1.382       .  S
C1579      F1587   1.385       .  S
C1579      F1588   1.383       .  S
C1579      F1589   1.384       .  S
C1593      C1594   1.401       .  A
C1593      C1598   1.409       .  A
C1593      H1603   1.083       .  S
C1594      C1599   1.488       .  S
C1594      C1595   1.417       .  A
C1595      C1596   1.409       .  A
C1595      C1600   1.519       .  S
C1596      C1597   1.403       .  A
C1596      H1601   1.083       .  S
C1597      C1598   1.420       .  A
C1598      C1602   1.518       .  S
C1599      C1604   1.416       .  A
C1599      C1608   1.401       .  A
C1600      F1616   1.382       .  S
C1600      F1617   1.382       .  S
C1600      F1618   1.385       .  S
C1602      F1613   1.382       .  S
C1602      F1614   1.385       .  S
C1602      F1615   1.384       .  S
C1604      C1605   1.409       .  A
C1604      C1609   1.519       .  S
C1605      C1606   1.405       .  A
C1605      H1610   1.083       .  S
C1606      C1607   1.420       .  A
C1607      C1608   1.408       .  A
C1607      C1611   1.519       .  S
C1608      H1612   1.083       .  S
C1609      F1622   1.384       .  S
C1609      F1623   1.383       .  S
C1609      F1624   1.382       .  S
C1611      F1619   1.385       .  S
C1611      F1620   1.383   1_655  S
C1611      F1621   1.382       .  S
C1625      C1626   1.400       .  A
C1625      C1630   1.403       .  A
C1625      H1635   1.084       .  S
C1626      C1631   1.480       .  S
C1626      C1627   1.415       .  A
C1627      C1628   1.405       .  A
C1627      C1632   1.520       .  S
C1628      C1629   1.405       .  A
C1628      H1633   1.083       .  S
C1629      C1630   1.418       .  A
C1630      C1634   1.517       .  S
C1631      C1636   1.416       .  A
C1631      C1640   1.398       .  A
C1632      F1648   1.382       .  S
C1632      F1649   1.382       .  S
C1632      F1650   1.384       .  S
C1634      F1645   1.383       .  S
C1634      F1646   1.384       .  S
C1634      F1647   1.384       .  S
C1636      C1637   1.406       .  A
C1636      C1641   1.519       .  S
C1637      C1638   1.402       .  A
C1637      H1642   1.083       .  S
C1638      C1639   1.422       .  A
C1639      C1640   1.405       .  A
C1639      C1643   1.521       .  S
C1640      H1644   1.083       .  S
C1641      F1654   1.384       .  S
C1641      F1655   1.382       .  S
C1641      F1656   1.383       .  S
C1643      F1651   1.384       .  S
C1643      F1652   1.383       .  S
C1643      F1653   1.385       .  S
C1657      C1658   1.397       .  A
C1657      C1662   1.406       .  A
C1657      H1667   1.083       .  S
C1658      C1663   1.472       .  S
C1658      C1659   1.409       .  A
C1659      C1660   1.399       .  A
C1659      C1664   1.522       .  S
C1660      C1661   1.411       .  A
C1660      H1665   1.082       .  S
C1661      C1662   1.428       .  A
C1662      C1666   1.520       .  S
C1663      C1668   1.413       .  A
C1663      C1672   1.397       .  A
C1664      F1680   1.383       .  S
C1664      F1681   1.382       .  S
C1664      F1682   1.385       .  S
C1666      F1677   1.385       .  S
C1666      F1678   1.383       .  S
C1666      F1679   1.382       .  S
C1668      C1669   1.402       .  A
C1668      C1673   1.519       .  S
C1669      C1670   1.404       .  A
C1669      H1674   1.083       .  S
C1670      C1671   1.420       .  A
C1671      C1672   1.402       .  A
C1671      C1675   1.516       .  S
C1672      H1676   1.083       .  S
C1673      F1686   1.385       .  S
C1673      F1687   1.382       .  S
C1673      F1688   1.382       .  S
C1675      F1683   1.385       .  S
C1675      F1684   1.382       .  S
C1675      F1685   1.381       .  S
C1689      C1690   1.405       .  A
C1689      C1694   1.410       .  A
C1689      H1699   1.083       .  S
C1690      C1695   1.491       .  S
C1690      C1691   1.418       .  A
C1691      C1692   1.408       .  A
C1691      C1696   1.519       .  S
C1692      C1693   1.402       .  A
C1692      H1697   1.083       .  S
C1693      C1694   1.414       .  A
C1694      C1698   1.517       .  S
C1695      C1700   1.416       .  A
C1695      C1704   1.404       .  A
C1696      F1712   1.382       .  S
C1696      F1713   1.382       .  S
C1696      F1714   1.384       .  S
C1698      F1709   1.383       .  S
C1698      F1710   1.384       .  S
C1698      F1711   1.383       .  S
C1700      C1701   1.410       .  A
C1700      C1705   1.519       .  S
C1701      C1702   1.405       .  A
C1701      H1706   1.083       .  S
C1702      C1703   1.417       .  A
C1703      C1704   1.410       .  A
C1703      C1707   1.517       .  S
C1704      H1708   1.083       .  S
C1705      F1718   1.384       .  S
C1705      F1719   1.382       .  S
C1705      F1720   1.383       .  S
C1707      F1715   1.382       .  S
C1707      F1716   1.382       .  S
C1707      F1717   1.384       .  S
C1721      C1722   1.400       .  A
C1721      C1726   1.401       .  A
C1721      H1731   1.083       .  S
C1722      C1727   1.469       .  S
C1722      C1723   1.416       .  A
C1723      C1724   1.401       .  A
C1723      C1728   1.520       .  S
C1724      C1725   1.399       .  A
C1724      H1729   1.084       .  S
C1725      C1726   1.412       .  A
C1726      C1730   1.516       .  S
C1727      C1732   1.413       .  A
C1727      C1736   1.400       .  A
C1728      F1744   1.382       .  S
C1728      F1745   1.382       .  S
C1728      F1746   1.385       .  S
C1730      F1741   1.385       .  S
C1730      F1742   1.380       .  S
C1730      F1743   1.383       .  S
C1732      C1733   1.400       .  A
C1732      C1737   1.520       .  S
C1733      C1734   1.402       .  A
C1733      H1738   1.083       .  S
C1734      C1735   1.416       .  A
C1735      C1736   1.401       .  A
C1735      C1739   1.520       .  S
C1736      H1740   1.084       .  S
C1737      F1750   1.385       .  S
C1737      F1751   1.382       .  S
C1737      F1752   1.382       .  S
C1739      F1747   1.385       .  S
C1739      F1748   1.383   1_554  S
C1739      F1749   1.382   1_554  S
C1753      C1754   1.399       .  A
C1753      C1758   1.405       .  A
C1753      H1763   1.083       .  S
C1754      C1759   1.477       .  S
C1754      C1755   1.416       .  A
C1755      C1756   1.406       .  A
C1755      C1760   1.521       .  S
C1756      C1757   1.403       .  A
C1756      H1761   1.083       .  S
C1757      C1758   1.420       .  A
C1758      C1762   1.521       .  S
C1759      C1764   1.414       .  A
C1759      C1768   1.401       .  A
C1760      F1776   1.382       .  S
C1760      F1777   1.382       .  S
C1760      F1778   1.384       .  S
C1762      F1773   1.384       .  S
C1762      F1774   1.384       .  S
C1762      F1775   1.382       .  S
C1764      C1765   1.402       .  A
C1764      C1769   1.519       .  S
C1765      C1766   1.404       .  A
C1765      H1770   1.082       .  S
C1766      C1767   1.417       .  A
C1767      C1768   1.404       .  A
C1767      C1771   1.518   1_554  S
C1768      H1772   1.083       .  S
C1769      F1782   1.385       .  S
C1769      F1783   1.382       .  S
C1769      F1784   1.382       .  S
C1771      F1779   1.385       .  S
C1771      F1780   1.383       .  S
C1771      F1781   1.382       .  S
C1785      C1786   1.399       .  A
C1785      C1790   1.400       .  A
C1785      H1795   1.084       .  S
C1786      C1791   1.470       .  S
C1786      C1787   1.412       .  A
C1787      C1788   1.402       .  A
C1787      C1792   1.521       .  S
C1788      C1789   1.406       .  A
C1788      H1793   1.082       .  S
C1789      C1790   1.418       .  A
C1790      C1794   1.519       .  S
C1791      C1796   1.409       .  A
C1791      C1800   1.398       .  A
C1792      F1808   1.382       .  S
C1792      F1809   1.382       .  S
C1792      F1810   1.385       .  S
C1794      F1805   1.385       .  S
C1794      F1806   1.383       .  S
C1794      F1807   1.384       .  S
C1796      C1797   1.399       .  A
C1796      C1801   1.521       .  S
C1797      C1798   1.410       .  A
C1797      H1802   1.082       .  S
C1798      C1799   1.426       .  A
C1799      C1800   1.404       .  A
C1799      C1803   1.522       .  S
C1800      H1804   1.083       .  S
C1801      F1814   1.384       .  S
C1801      F1815   1.382       .  S
C1801      F1816   1.382       .  S
C1803      F1811   1.383       .  S
C1803      F1812   1.384       .  S
C1803      F1813   1.385       .  S
C1817      C1818   1.400       .  A
C1817      C1822   1.410       .  A
C1817      H1827   1.083       .  S
C1818      C1823   1.483       .  S
C1818      C1819   1.411       .  A
C1819      C1820   1.403       .  A
C1819      C1824   1.521       .  S
C1820      C1821   1.412       .  A
C1820      H1825   1.081       .  S
C1821      C1822   1.427       .  A
C1822      C1826   1.518       .  S
C1823      C1828   1.414       .  A
C1823      C1832   1.402       .  A
C1824      F1840   1.382       .  S
C1824      F1841   1.383       .  S
C1824      F1842   1.384       .  S
C1826      F1837   1.383       .  S
C1826      F1838   1.385       .  S
C1826      F1839   1.382       .  S
C1828      C1829   1.406       .  A
C1828      C1833   1.519       .  S
C1829      C1830   1.405       .  A
C1829      H1834   1.083       .  S
C1830      C1831   1.420       .  A
C1831      C1832   1.406       .  A
C1831      C1835   1.520       .  S
C1832      H1836   1.083       .  S
C1833      F1846   1.384       .  S
C1833      F1847   1.382       .  S
C1833      F1848   1.382       .  S
C1835      F1843   1.385       .  S
C1835      F1844   1.383       .  S
C1835      F1845   1.384       .  S
C1849      C1850   1.401       .  A
C1849      C1854   1.406       .  A
C1849      H1859   1.083       .  S
C1850      C1855   1.475       .  S
C1850      C1851   1.413       .  A
C1851      C1852   1.400       .  A
C1851      C1856   1.521       .  S
C1852      C1853   1.404       .  A
C1852      H1857   1.083       .  S
C1853      C1854   1.419       .  A
C1854      C1858   1.519       .  S
C1855      C1860   1.411       .  A
C1855      C1864   1.399       .  A
C1856      F1872   1.382       .  S
C1856      F1873   1.382       .  S
C1856      F1874   1.385       .  S
C1858      F1869   1.383       .  S
C1858      F1870   1.385       .  S
C1858      F1871   1.383       .  S
C1860      C1861   1.401       .  A
C1860      C1865   1.520       .  S
C1861      C1862   1.405       .  A
C1861      H1866   1.083       .  S
C1862      C1863   1.424       .  A
C1863      C1864   1.406       .  A
C1863      C1867   1.521       .  S
C1864      H1868   1.083       .  S
C1865      F1878   1.384       .  S
C1865      F1879   1.382       .  S
C1865      F1880   1.383       .  S
C1867      F1875   1.383       .  S
C1867      F1876   1.384       .  S
C1867      F1877   1.385       .  S
C1881      C1882   1.402       .  A
C1881      C1886   1.404       .  A
C1881      H1891   1.083       .  S
C1882      C1887   1.483       .  S
C1882      C1883   1.416       .  A
C1883      C1884   1.409       .  A
C1883      C1888   1.519       .  S
C1884      C1885   1.403       .  A
C1884      H1889   1.083       .  S
C1885      C1886   1.413       .  A
C1886      C1890   1.516       .  S
C1887      C1892   1.418       .  A
C1887      C1896   1.403       .  A
C1888      F1904   1.382       .  S
C1888      F1905   1.382       .  S
C1888      F1906   1.384       .  S
C1890      F1901   1.382       .  S
C1890      F1902   1.384       .  S
C1890      F1903   1.383       .  S
C1892      C1893   1.406       .  A
C1892      C1897   1.520       .  S
C1893      C1894   1.401       .  A
C1893      H1898   1.084       .  S
C1894      C1895   1.414       .  A
C1895      C1896   1.408       .  A
C1895      C1899   1.517       .  S
C1896      H1900   1.083       .  S
C1897      F1910   1.385       .  S
C1897      F1911   1.382       .  S
C1897      F1912   1.382       .  S
C1899      F1907   1.382       .  S
C1899      F1908   1.383       .  S
C1899      F1909   1.384       .  S
