geometry optimzed in LAMMPS
_audit_creation_date              2020-11-30 
_audit_creation_method            'lammps2cif' 
_symmetry_space_group_name_H-M    'P1' 
_symmetry_Int_Tables_number       1 
_symmetry_cell_setting            triclinic 
loop_ 
_symmetry_equiv_pos_as_xyz 
  x,y,z 
_cell_length_a                    40.62165455 
_cell_length_b                    36.278449362464166 
_cell_length_c                    27.819511827755132 
_cell_angle_alpha                 90.31253791878251 
_cell_angle_beta                  88.26159635480525 
_cell_angle_gamma                 89.45645208631265 
loop_ 
_atom_site_label 
_atom_site_type_symbol 
_atom_site_fract_x 
_atom_site_fract_y 
_atom_site_fract_z 
_atom_site_charge 
C1          C  0.18837052  0.08947584  0.24749928    -0.02000
C2          C  0.81787163  0.08172646  0.25807406    -0.02000
In3        In  0.91736655  0.16007626  0.00576753     1.36900
C4          C  0.91262698  0.23264644  0.99570399     0.78000
O5          O  0.89965358  0.16367779  0.08207359    -0.60400
O6          O  0.90056884  0.11081821  0.04995676    -0.51300
C7          C  0.88378312  0.13321429  0.43404615     0.70700
O8          O  0.87066129  0.14889911  0.47045614    -0.46200
C9          C  0.98566019  0.15407231  0.51157296     0.75400
O10         O  0.92834941  0.21107602  0.46617229    -0.58000
O11         O  0.96541027  0.16392731  0.04387562    -0.48100
O12         O  0.89438184  0.21493383  0.02455298    -0.54500
C13         C  0.89389009  0.12990916  0.08706265     0.85600
O14         O  0.91467894  0.13042593  0.43594130    -0.56400
O15         O  0.96927838  0.13055863  0.48913501    -0.59700
In16       In  0.08435294  0.16476096  0.00345506     1.36900
C17         C  0.09177809  0.23843251  0.50547576     0.78000
O18         O  0.12951510  0.14339592  0.45990847    -0.60400
O19         O  0.08636339  0.15597434  0.42236045    -0.51300
C20         C  0.12175731  0.13465624  0.07097500     0.70700
O21         O  0.09368674  0.12272014  0.06060639    -0.46200
C22         C  0.01913062  0.15348940  0.00872172     0.75400
O23         O  0.08455137  0.21846834  0.04433389    -0.58000
O24         O  0.04067340  0.13286057  0.48863876    -0.48100
O25         O  0.09407349  0.22017829  0.46692558    -0.54500
C26         C  0.11574470  0.14445917  0.42000809     0.85600
O27         O  0.13123171  0.16145799  0.04549713    -0.56400
O28         O  0.03452908  0.16939520  0.04121396    -0.59700
C29         C  0.18269779  0.42004124  0.24796206    -0.02000
C30         C  0.81064165  0.41392122  0.25106118    -0.02000
In31       In  0.91530288  0.34625172  0.99558274     1.36900
C32         C  0.91337629  0.27128488  0.49528188     0.78000
O33         O  0.87654617  0.37129605  0.45643394    -0.60400
O34         O  0.91483011  0.34793733  0.41331909    -0.51300
C35         C  0.88559131  0.37845112  0.07213253     0.70700
O36         O  0.87781176  0.34760944  0.05506055    -0.46200
C37         C  0.97862849  0.35826139  0.00818818     0.75400
O38         O  0.89596754  0.29240285  0.02382343    -0.58000
O39         O  0.96442244  0.37699388  0.47907818    -0.48100
O40         O  0.92632273  0.28876994  0.46086875    -0.54500
C41         C  0.88682916  0.36305648  0.41458689     0.85600
O42         O  0.90911727  0.39401699  0.04964493    -0.56400
O43         O  0.96229008  0.33460028  0.03140395    -0.59700
In44       In  0.07956484  0.35045178  0.00735440     1.36900
C45         C  0.08735902  0.27778051  0.00778145     0.78000
O46         O  0.12025223  0.35245998  0.05671134    -0.60400
O47         O  0.08367974  0.39487102  0.06367564    -0.51300
C48         C  0.11403024  0.37445794  0.42673705     0.70700
O49         O  0.09030190  0.35233692  0.42647588    -0.46200
C50         C  0.01733248  0.35839420  0.50837331     0.75400
O51         O  0.09281377  0.29720944  0.46823802    -0.58000
O52         O  0.02965144  0.33780893  0.03771604    -0.48100
O53         O  0.08327196  0.29630299  0.04589465    -0.54500
C54         C  0.11036639  0.38132602  0.07825450     0.85600
O55         O  0.12076325  0.38641466  0.46785426    -0.56400
O56         O  0.03530463  0.37974434  0.48366849    -0.59700
C57         C  0.31733276  0.17136574  0.26214361    -0.02000
C58         C  0.68416560  0.15868897  0.25067567    -0.02000
In59       In  0.58366655  0.08637766  0.00277088     1.36900
C60         C  0.58385759  0.01336374  0.00478921     0.78000
O61         O  0.62813656  0.10142082  0.04256996    -0.60400
O62         O  0.58300003  0.09992087  0.08256126    -0.51300
C63         C  0.61445273  0.12036610  0.43316154     0.70700
O64         O  0.62240812  0.08986789  0.45094865    -0.46200
C65         C  0.51545811  0.09991994  0.50062547     0.75400
O66         O  0.57988178  0.03275197  0.46792042    -0.58000
O67         O  0.53730380  0.11891922  0.02370447    -0.48100
O68         O  0.58404104  0.03275856  0.04227910    -0.54500
C69         C  0.61369374  0.10463627  0.08309464     0.85600
O70         O  0.58884168  0.13491881  0.45249084    -0.56400
O71         O  0.53129929  0.07878183  0.47210866    -0.59700
In72       In  0.41781997  0.09427221  0.00670671     1.36900
C73         C  0.41103122  0.02056672  0.50603467     0.78000
O74         O  0.36723735  0.10413799  0.46872831    -0.60400
O75         O  0.41159389  0.12703830  0.44074449    -0.51300
C76         C  0.38834458  0.12202154  0.08495401     0.70700
O77         O  0.38286710  0.09006845  0.06940157    -0.46200
C78         C  0.48323778  0.10061340  0.99935528     0.75400
O79         O  0.42308410  0.03944219  0.04251517    -0.58000
O80         O  0.46312032  0.08271525  0.47207630    -0.48100
O81         O  0.40443773  0.04001831  0.47026765    -0.54500
C82         C  0.38133627  0.12174618  0.43549725     0.85600
O83         O  0.41005908  0.13968549  0.06137421    -0.56400
O84         O  0.46610614  0.12036417  0.02824391    -0.59700
C85         C  0.31418359  0.33990072  0.24555387    -0.02000
C86         C  0.68237195  0.32591313  0.25023836    -0.02000
In87       In  0.58332784  0.40207614  0.00040898     1.36900
C88         C  0.58172749  0.47534559  0.50495459     0.78000
O89         O  0.61053422  0.41189239  0.43731366    -0.60400
O90         O  0.59563312  0.35734881  0.45382080    -0.51300
C91         C  0.61767151  0.37574745  0.07311403     0.70700
O92         O  0.62779947  0.40178946  0.04701954    -0.46200
C93         C  0.51789756  0.39266229  0.99765954     0.75400
O94         O  0.58386297  0.45539691  0.04087348    -0.58000
O95         O  0.53250884  0.37978027  0.47422643    -0.48100
O96         O  0.57498613  0.45737176  0.46771382    -0.54500
C97         C  0.61105773  0.37844396  0.42520949     0.85600
O98         O  0.59074468  0.36215832  0.06045028    -0.56400
O99         O  0.53266907  0.39958259  0.03569974    -0.59700
In100      In  0.41704048  0.40848488  0.99310787     1.36900
C101        C  0.41452471  0.48128172  0.00254414     0.78000
O102        O  0.37455341  0.41280826  0.04533601    -0.60400
O103        O  0.40423866  0.36403361  0.04502476    -0.51300
C104        C  0.38351694  0.38708578  0.41802284     0.70700
O105        O  0.40860681  0.40736718  0.41691603    -0.46200
C106        C  0.47815983  0.39597154  0.50476051     0.75400
O107        O  0.40889326  0.46412536  0.46312131    -0.58000
O108        O  0.46375528  0.39850350  0.03264945    -0.48100
O109        O  0.42827607  0.46089777  0.03235176    -0.54500
C110        C  0.38019698  0.38183713  0.06392792     0.85600
O111        O  0.37478067  0.37666276  0.45951866    -0.56400
O112        O  0.46167800  0.38040608  0.47291355    -0.59700
C113        C  0.63610387  0.32772236  0.37664642    -0.11800
C114        C  0.62796940  0.36504155  0.38083092     0.05200
C115        C  0.63231593  0.38758410  0.34035154    -0.07100
C116        C  0.64609647  0.37276003  0.29804588    -0.07900
C117        C  0.65938368  0.33662113  0.29524398    -0.02400
C118        C  0.64826748  0.31261976  0.33306836     0.04400
N119        N  0.63618159  0.27657682  0.32340009     0.66900
H120        H  0.62885094  0.30914413  0.40538988     0.15800
H121        H  0.64582126  0.39009027  0.26654612     0.15500
N122        N  0.62205539  0.42535990  0.34062531     0.74600
O123        O  0.64813091  0.24956980  0.34557175    -0.38800
O124        O  0.60609917  0.27507356  0.31377169    -0.38800
O125        O  0.64355807  0.45005782  0.34388682    -0.39500
O126        O  0.59425926  0.43372972  0.32458458    -0.39500
C127        C  0.61620044  0.34575701  0.15257587    -0.11800
C128        C  0.63470384  0.36328152  0.11658409     0.05200
C129        C  0.66820601  0.36975130  0.12418555    -0.07100
C130        C  0.68250845  0.35782638  0.16659304    -0.07900
C131        C  0.66438677  0.34009065  0.20396666    -0.02400
C132        C  0.63002830  0.33464609  0.19568978     0.04400
N133        N  0.60831495  0.31686695  0.22926604     0.66900
H134        H  0.59019697  0.34100228  0.14768936     0.15800
H135        H  0.70838330  0.36258771  0.16917565     0.15500
N136        N  0.68851581  0.38788229  0.08900186     0.74600
O137        O  0.58957295  0.33691609  0.25558133    -0.38800
O138        O  0.59873102  0.28488657  0.21889006    -0.37200
O139        O  0.69548956  0.42134558  0.09532463    -0.39500
O140        O  0.70603664  0.36870420  0.05998179    -0.39500
C141        C  0.31893134  0.35126980  0.33439957    -0.11800
C142        C  0.33388889  0.35618049  0.28817120     0.05200
C143        C  0.36466457  0.37530180  0.28614133    -0.07100
C144        C  0.37998588  0.38471658  0.32903548    -0.07900
C145        C  0.36576370  0.37682967  0.37426331    -0.02400
C146        C  0.33448328  0.36051812  0.37659755     0.04400
N147        N  0.31792298  0.35270655  0.42139777     0.66900
H148        H  0.29520715  0.33793518  0.33787701     0.15800
H149        H  0.40334385  0.39889417  0.32672840     0.15500
N150        N  0.38011578  0.38834078  0.24258877     0.74600
O151        O  0.29570554  0.37456798  0.43707400    -0.38800
O152        O  0.31888824  0.32026979  0.43749019    -0.38800
O153        O  0.37306353  0.42040483  0.22872349    -0.39500
O154        O  0.40810100  0.37544148  0.23039011    -0.39500
C155        C  0.31455647  0.37111831  0.16184883    -0.11800
C156        C  0.33030029  0.34772986  0.19495397     0.05200
C157        C  0.36024220  0.33056453  0.17806786    -0.07100
C158        C  0.37554239  0.34161189  0.13491087    -0.07900
C159        C  0.36127482  0.36823186  0.10597201    -0.02400
C160        C  0.32979379  0.38192430  0.11876494     0.04400
N161        N  0.31226629  0.40605645  0.08794180     0.66900
H162        H  0.28994959  0.38160025  0.16808837     0.15800
H163        H  0.39890248  0.32897264  0.12401445     0.15500
N164        N  0.37345418  0.29862105  0.20009530     0.74600
O165        O  0.29296701  0.39236843  0.05810972    -0.38800
O166        O  0.30906815  0.43962634  0.09942300    -0.38800
O167        O  0.36798124  0.26805345  0.18023239    -0.39500
O168        O  0.39809246  0.30150804  0.22634797    -0.39500
C169        C  0.67344761  0.26228040  0.20960259    -0.11800
C170        C  0.68739104  0.28251649  0.24737854     0.05200
C171        C  0.70417321  0.26099969  0.28216998    -0.07100
C172        C  0.70398537  0.22194374  0.27945588    -0.07900
C173        C  0.68632979  0.20196267  0.24469000    -0.02400
C174        C  0.67008586  0.22390634  0.20957435     0.04400
N175        N  0.64836915  0.20957046  0.17427941     0.66900
H176        H  0.66269675  0.27589966  0.17955882     0.15800
H177        H  0.71686609  0.20688141  0.30673847     0.15500
N178        N  0.72084779  0.27766280  0.32153808     0.74600
O179        O  0.65610686  0.21378819  0.13039070    -0.38800
O180        O  0.61815663  0.20685297  0.18512907    -0.38800
O181        O  0.70725257  0.27745380  0.36289428    -0.39500
O182        O  0.75179502  0.27995402  0.31899812    -0.39500
C183        C  0.63904620  0.11770965  0.21297245    -0.11800
C184        C  0.66748122  0.13967212  0.20697705     0.05200
C185        C  0.68100579  0.14150938  0.15885506    -0.07100
C186        C  0.66277211  0.12977144  0.12007604    -0.07900
C187        C  0.63191298  0.11398533  0.12661783    -0.02400
C188        C  0.62075634  0.10597543  0.17372010     0.04400
N189        N  0.59230934  0.08384302  0.18241610     0.66900
H190        H  0.63088882  0.10864316  0.24816620     0.15800
H191        H  0.67306331  0.13364370  0.08404864     0.15500
N192        N  0.71352360  0.15384054  0.14734371     0.74600
O193        O  0.59593983  0.04963188  0.18860555    -0.38800
O194        O  0.56532942  0.09911345  0.19487781    -0.38800
O195        O  0.73341747  0.13058792  0.12872510    -0.39500
O196        O  0.71830104  0.18752730  0.13892074    -0.39500
C197        C  0.61506404  0.15154099  0.35394935    -0.11800
C198        C  0.63269069  0.13614169  0.39115518     0.05200
C199        C  0.66713191  0.13354450  0.38560732    -0.07100
C200        C  0.68279096  0.14397408  0.34226206    -0.07900
C201        C  0.66499656  0.15363523  0.30089998    -0.02400
C202        C  0.63041811  0.16066305  0.30965450     0.04400
N203        N  0.60968371  0.17674936  0.27487948     0.66900
H204        H  0.58863200  0.15525083  0.35848445     0.15800
H205        H  0.70939594  0.14305911  0.34128359     0.15500
N206        N  0.68685298  0.12024195  0.42357645     0.74600
O207        O  0.58652788  0.15773157  0.25888652    -0.38800
O208        O  0.60543933  0.21106987  0.27693294    -0.38800
O209        O  0.69792427  0.08763912  0.42138610    -0.39500
O210        O  0.70007229  0.14313941  0.45111509    -0.39500
C211        C  0.29868718  0.23278594  0.22427718    -0.11800
C212        C  0.31515641  0.21519687  0.26232112     0.05200
C213        C  0.33243343  0.23962007  0.29350533    -0.07100
C214        C  0.33081106  0.27790272  0.28702542    -0.07900
C215        C  0.31236731  0.29592261  0.25133357    -0.02400
C216        C  0.29687466  0.27160698  0.21852642     0.04400
N217        N  0.28113939  0.28511962  0.17669621     0.66900
H218        H  0.28734471  0.21584561  0.19733812     0.15800
H219        H  0.34710717  0.29302214  0.30951342     0.15500
N220        N  0.35409199  0.22775844  0.33051991     0.74600
O221        O  0.29813175  0.28803817  0.13820401    -0.38800
O222        O  0.25041297  0.28132181  0.17380001    -0.38800
O223        O  0.38461496  0.22670850  0.32108402    -0.39500
O224        O  0.34539067  0.23432266  0.37365806    -0.39500
C225        C  0.32028450  0.14599854  0.17508995    -0.11800
C226        C  0.33734348  0.16141467  0.21413453     0.05200
C227        C  0.37171475  0.16886300  0.20480288    -0.07100
C228        C  0.38738720  0.15671995  0.16184676    -0.07900
C229        C  0.37042605  0.13726661  0.12732727    -0.02400
C230        C  0.33646003  0.13237185  0.13385789     0.04400
N231        N  0.31761525  0.11411168  0.09846939     0.66900
H232        H  0.29380854  0.14346475  0.17583729     0.15800
H233        H  0.41352981  0.16150845  0.15623945     0.15500
N234        N  0.39214177  0.18748392  0.23789574     0.74600
O235        O  0.31032479  0.08067889  0.10446286    -0.38800
O236        O  0.30148080  0.13318033  0.06940231    -0.38800
O237        O  0.41341042  0.16873832  0.25944861    -0.39500
O238        O  0.39907549  0.22053070  0.22902804    -0.39500
C239        C  0.33385022  0.15130056  0.39642234    -0.11800
C240        C  0.36428035  0.13304694  0.39245169     0.05200
C241        C  0.37697237  0.12267560  0.34699926    -0.07100
C242        C  0.36077419  0.13351279  0.30612940    -0.07900
C243        C  0.33280426  0.15671888  0.30859087    -0.02400
C244        C  0.31765668  0.16282921  0.35518751     0.04400
N245        N  0.28594939  0.18029004  0.36154573     0.66900
H246        H  0.32279763  0.15706395  0.43164897     0.15800
H247        H  0.36984503  0.12198629  0.27241957     0.15500
N248        N  0.40493509  0.09860535  0.34172887     0.74600
O249        O  0.26096720  0.16021955  0.36669559    -0.38800
O250        O  0.28396485  0.21304102  0.37686135    -0.38800
O251        O  0.40050914  0.06483525  0.33323255    -0.39500
O252        O  0.43306201  0.11215252  0.33388196    -0.39500
C253        C  0.77712713  0.35474126  0.24082999    -0.11800
C254        C  0.77646594  0.39326626  0.25102226     0.05200
C255        C  0.74487331  0.40852012  0.26205040    -0.07100
C256        C  0.71704477  0.38584374  0.26382937    -0.07900
C257        C  0.71685168  0.34736085  0.25347487    -0.02400
C258        C  0.74842505  0.33286290  0.23806371     0.04400
N259        N  0.75182454  0.29860307  0.21228744     0.66900
H260        H  0.80051595  0.34192828  0.23042303     0.15800
H261        H  0.69476895  0.40138585  0.27087780     0.15500
N262        N  0.73919945  0.44696875  0.27113346     0.74600
O263        O  0.77161770  0.27430256  0.22665834    -0.38800
O264        O  0.74330193  0.29737082  0.16906921    -0.38800
O265        O  0.72646220  0.46571067  0.23830647    -0.39500
O266        O  0.73381878  0.45740927  0.31399101    -0.39500
C267        C  0.85762543  0.37285472  0.28548687    -0.11800
C268        C  0.82851667  0.39413738  0.29304830     0.05200
C269        C  0.81607015  0.39675764  0.34161815    -0.07100
C270        C  0.83530693  0.38530217  0.37958282    -0.07900
C271        C  0.86677693  0.37027129  0.37171467    -0.02400
C272        C  0.87709463  0.36189217  0.32395292     0.04400
N273        N  0.90697239  0.34200467  0.31348752     0.66900
H274        H  0.86604671  0.36477866  0.24978854     0.15800
H275        H  0.82574016  0.38983524  0.41595952     0.15500
N276        N  0.78507605  0.41356054  0.35428030     0.74600
O277        O  0.90588752  0.30745818  0.30839198    -0.38800
O278        O  0.93162742  0.35912251  0.29675353    -0.38800
O279        O  0.76138943  0.39273566  0.36557458    -0.39500
O280        O  0.78490678  0.44587516  0.37133689    -0.39500
C281        C  0.86235297  0.41941502  0.19513389    -0.11800
C282        C  0.82886430  0.40907466  0.20033955     0.05200
C283        C  0.81364614  0.39806894  0.15675148    -0.07100
C284        C  0.83307683  0.38864536  0.11611142    -0.07900
C285        C  0.86698337  0.39416632  0.11415399    -0.02400
C286        C  0.88138466  0.41211456  0.15306750     0.04400
N287        N  0.91532795  0.42203815  0.15154953     0.66900
H288        H  0.87448093  0.43189040  0.22473717     0.15800
H289        H  0.82113143  0.37803084  0.08461847     0.15500
N290        N  0.77894284  0.40009448  0.14977378     0.74600
O291        O  0.92283548  0.45477734  0.14119018    -0.38800
O292        O  0.93570902  0.40234369  0.17346874    -0.38800
O293        O  0.76735763  0.42970535  0.13335872    -0.39500
O294        O  0.76451513  0.37062514  0.13950623    -0.39500
C295        C  0.25016829  0.34155709  0.25356196    -0.11800
C296        C  0.27984886  0.36077082  0.25086864     0.05200
C297        C  0.27696199  0.40027107  0.25417912    -0.07100
C298        C  0.24618812  0.41800963  0.25557354    -0.07900
C299        C  0.21674498  0.39891773  0.25009243    -0.02400
C300        C  0.21946009  0.35945738  0.25097030     0.04400
N301        N  0.19150349  0.33615966  0.24909559     0.66900
H302        H  0.25010636  0.31199348  0.25679402     0.15800
H303        H  0.24617472  0.44743856  0.26093047     0.15500
N304        N  0.30483512  0.42389890  0.25479179     0.74600
O305        O  0.18226374  0.32013836  0.28728692    -0.38800
O306        O  0.18535394  0.32114824  0.20936678    -0.38800
O307        O  0.31096500  0.44301608  0.21786478    -0.39500
O308        O  0.31356956  0.43618012  0.29494411    -0.39500
C309        C  0.13457214  0.42883678  0.19272665    -0.11800
C310        C  0.16620652  0.41336756  0.19912745     0.05200
C311        C  0.18168750  0.39639363  0.15775973    -0.07100
C312        C  0.16264587  0.38663908  0.11900430    -0.07900
C313        C  0.12948913  0.39695267  0.11713946    -0.02400
C314        C  0.11610164  0.42080033  0.15256715     0.04400
N315        N  0.08374610  0.43630619  0.14933354     0.66900
H316        H  0.12314265  0.44575166  0.22034667     0.15800
H317        H  0.17440212  0.37187238  0.08903622     0.15500
N318        N  0.21665744  0.39341549  0.15041587     0.74600
O319        O  0.05966310  0.42056221  0.16993247    -0.38800
O320        O  0.08059469  0.46936874  0.13627187    -0.38800
O321        O  0.23147242  0.42019569  0.13108125    -0.39500
O322        O  0.22944912  0.36174691  0.14550510    -0.39500
C323        C  0.17809238  0.41137170  0.33747386    -0.11800
C324        C  0.16334497  0.40465687  0.29273278     0.05200
C325        C  0.13328091  0.38405556  0.29403609    -0.07100
C326        C  0.11820456  0.37543654  0.33832014    -0.07900
C327        C  0.13208447  0.38474706  0.38199112    -0.02400
C328        C  0.16297633  0.40190165  0.38136583     0.04400
N329        N  0.17960527  0.41002156  0.42463872     0.66900
H330        H  0.20133952  0.42573666  0.33847421     0.15800
H331        H  0.09514241  0.36063345  0.33824827     0.15500
N332        N  0.11751704  0.36969895  0.25267117     0.74600
O333        O  0.20095413  0.38750218  0.43907573    -0.38800
O334        O  0.17986309  0.44283904  0.43989166    -0.38800
O335        O  0.12378216  0.33685586  0.24018650    -0.39500
O336        O  0.08926193  0.38219339  0.24392132    -0.39500
C337        C  0.75400327  0.08587231  0.27342312    -0.11800
C338        C  0.78286245  0.10147450  0.25224764     0.05200
C339        C  0.77711157  0.13432816  0.22518150    -0.07100
C340        C  0.74823648  0.15560383  0.23477827    -0.07900
C341        C  0.71907379  0.13886167  0.25224853    -0.02400
C342        C  0.72245321  0.10123294  0.26616628     0.04400
N343        N  0.69463469  0.07720594  0.26788527     0.66900
H344        H  0.75525083  0.05945001  0.29113221     0.15800
H345        H  0.74678725  0.18269870  0.21907279     0.15500
N346        N  0.79369515  0.14057588  0.17958202     0.74600
O347        O  0.68825368  0.05838565  0.23108202    -0.38800
O348        O  0.68028853  0.06970368  0.30739030    -0.38800
O349        O  0.79625752  0.11441381  0.14952244    -0.39500
O350        O  0.79804897  0.17304336  0.16472787    -0.39500
C351        C  0.82581037  0.01669351  0.29631551    -0.11800
C352        C  0.81243646  0.03825180  0.25945424     0.05200
C353        C  0.79454703  0.01805284  0.22470242    -0.07100
C354        C  0.79615383  0.47982477  0.22511805    -0.07900
C355        C  0.81105108  0.45721700  0.25948441    -0.02400
C356        C  0.83031157  0.47667874  0.29384625     0.04400
N357        N  0.85524903  0.45981567  0.32216792     0.66900
H358        H  0.83805114  0.02906487  0.32593353     0.15800
H359        H  0.78287405  0.46712969  0.19693638     0.15500
N360        N  0.77921623  0.03561563  0.18506725     0.74600
O361        O  0.88333277  0.45398241  0.30285970    -0.38800
O362        O  0.85350880  0.46401269  0.36725465    -0.38800
O363        O  0.79287690  0.03257133  0.14388604    -0.39500
O364        O  0.74846641  0.04064460  0.18742130    -0.39500
C365        C  0.85322181  0.06739108  0.18056938    -0.11800
C366        C  0.84254131  0.09313490  0.21637736     0.05200
C367        C  0.85651427  0.12937788  0.21285689    -0.07100
C368        C  0.87423535  0.13961961  0.17123570    -0.07900
C369        C  0.87952656  0.11518761  0.13260277    -0.02400
C370        C  0.87008436  0.07823991  0.13841623     0.04400
N371        N  0.87616058  0.05141828  0.10133507     0.66900
H372        H  0.84804420  0.03845992  0.18368694     0.15800
H373        H  0.88315943  0.16763103  0.16884368     0.15500
N374        N  0.85368002  0.15633788  0.25079031     0.74600
O375        O  0.89978279  0.02890040  0.10512753    -0.38800
O376        O  0.85363394  0.04429148  0.07253936    -0.38800
O377        O  0.83334296  0.18258511  0.24723448    -0.39500
O378        O  0.87827027  0.16130545  0.27663922    -0.39500
C379        C  0.81667610  0.11292103  0.34294219    -0.11800
C380        C  0.83476150  0.09424282  0.30578947     0.05200
C381        C  0.86915460  0.08743621  0.31408064    -0.07100
C382        C  0.88348518  0.10000926  0.35611214    -0.07900
C383        C  0.86548155  0.11928664  0.39186181    -0.02400
C384        C  0.83145210  0.12509746  0.38531835     0.04400
N385        N  0.81122383  0.14338918  0.42107555     0.66900
H386        H  0.79065877  0.11839325  0.33987501     0.15800
H387        H  0.90955255  0.09476841  0.36031940     0.15500
N388        N  0.89070072  0.06864804  0.28004240     0.74600
O389        O  0.80459856  0.17716809  0.41602308    -0.38800
O390        O  0.79309696  0.12431090  0.44869027    -0.38800
O391        O  0.91096173  0.08751075  0.25547851    -0.39500
O392        O  0.89772575  0.03524438  0.28727851    -0.39500
C393        C  0.25182488  0.09196245  0.25646136    -0.11800
C394        C  0.22194506  0.11075281  0.25101731     0.05200
C395        C  0.22334537  0.15038876  0.25329907    -0.07100
C396        C  0.25315255  0.16874513  0.26022141    -0.07900
C397        C  0.28344484  0.15003818  0.26170068    -0.02400
C398        C  0.28190875  0.11037099  0.26056808     0.04400
N399        N  0.31062331  0.08744219  0.26295613     0.66900
H400        H  0.25228284  0.06231954  0.25904935     0.15800
H401        H  0.25189431  0.19828298  0.26450811     0.15500
N402        N  0.19468577  0.17334084  0.24973335     0.74600
O403        O  0.31609174  0.07137054  0.30208780    -0.38800
O404        O  0.32234151  0.07328713  0.22450735    -0.38800
O405        O  0.18391670  0.18970916  0.28724675    -0.39500
O406        O  0.18878044  0.18758208  0.20958776    -0.39500
C407        C  0.20392505  0.48304056  0.21630139    -0.11800
C408        C  0.18462131  0.46387432  0.25127575     0.05200
C409        C  0.16372773  0.48691376  0.28145221    -0.07100
C410        C  0.16842655  0.02736552  0.28360349    -0.07900
C411        C  0.18984891  0.04571768  0.25075216    -0.02400
C412        C  0.20716256  0.02220939  0.21730462     0.04400
N413        N  0.22485040  0.03663702  0.17643766     0.66900
H414        H  0.21802719  0.46746015  0.18974674     0.15800
H415        H  0.15079329  0.04259883  0.30583345     0.15500
N416        N  0.13779979  0.47352537  0.31266710     0.74600
O417        O  0.25590827  0.03499096  0.17538864    -0.38800
O418        O  0.21035368  0.03822098  0.13700535    -0.38800
O419        O  0.14039322  0.47843532  0.35733904    -0.39500
O420        O  0.10916028  0.47138671  0.29659277    -0.39500
C421        C  0.12440480  0.09724837  0.14527095    -0.11800
C422        C  0.14073493  0.11959499  0.11157866     0.05200
C423        C  0.17403607  0.12793612  0.11890265    -0.07100
C424        C  0.18909806  0.11672944  0.16118219    -0.07900
C425        C  0.17169031  0.09797211  0.19846376    -0.02400
C426        C  0.13937174  0.08572334  0.18744908     0.04400
N427        N  0.12101192  0.06121802  0.21783586     0.66900
H428        H  0.09928710  0.08891956  0.13936451     0.15800
H429        H  0.21487433  0.12318252  0.16410615     0.15500
N430        N  0.19345291  0.14696091  0.08346139     0.74600
O431        O  0.09686761  0.07389235  0.24253225    -0.38800
O432        O  0.12105993  0.02746340  0.20662807    -0.38800
O433        O  0.19928159  0.18072430  0.08968868    -0.39500
O434        O  0.21184007  0.12844956  0.05480873    -0.39500
C435        C  0.14006388  0.12692912  0.28828921    -0.11800
C436        C  0.16879949  0.10503761  0.29243826     0.05200
C437        C  0.18019586  0.09863615  0.33996550    -0.07100
C438        C  0.16232851  0.11207246  0.37985016    -0.07900
C439        C  0.13321256  0.13231548  0.37521339    -0.02400
C440        C  0.12230335  0.14030573  0.32877717     0.04400
N441        N  0.09437489  0.16362322  0.32161919     0.66900
H442        H  0.13166486  0.13542385  0.25359407     0.15800
H443        H  0.17134309  0.10586778  0.41521772     0.15500
N444        N  0.20891197  0.07677385  0.34920266     0.74600
O445        O  0.09884076  0.19762949  0.31508373    -0.38800
O446        O  0.06788733  0.14938801  0.30840700    -0.38800
O447        O  0.23515049  0.09311467  0.35885388    -0.39500
O448        O  0.20507498  0.04453491  0.36510762    -0.39500
C449        C  0.18457574  0.08483577  0.74961245    -0.02000
C450        C  0.82055529  0.07863281  0.75709008    -0.02000
In451      In  0.91965750  0.15860937  0.50726110     1.36900
C452        C  0.91320050  0.23101056  0.49703022     0.78000
O453        O  0.89900498  0.16161114  0.58209589    -0.60400
O454        O  0.90975094  0.10842894  0.55452125    -0.51300
C455        C  0.88205201  0.13244577  0.93433127     0.70700
O456        O  0.87216109  0.15968680  0.95932306    -0.46200
C457        C  0.98297921  0.15270165  0.00869069     0.75400
O458        O  0.93202515  0.21312245  0.96989444    -0.58000
O459        O  0.96836324  0.17828484  0.53294830    -0.48100
O460        O  0.89953349  0.21370382  0.53115664    -0.54500
C461        C  0.89886815  0.12751775  0.58967729     0.85600
O462        O  0.90924297  0.11919701  0.94703358    -0.56400
O463        O  0.96700567  0.14340211  0.97253196    -0.59700
In464      In  0.08704689  0.16571458  0.50310808     1.36900
C465        C  0.08862435  0.23763940  0.00711652     0.78000
O466        O  0.09380681  0.16888522  0.92350823    -0.60400
O467        O  0.11388888  0.12341848  0.96070423    -0.51300
C468        C  0.12058076  0.13236901  0.57258681     0.70700
O469        O  0.09361327  0.12025606  0.55770507    -0.46200
C470        C  0.02190407  0.15548402  0.51100113     0.75400
O471        O  0.08824864  0.21951433  0.54303042    -0.58000
O472        O  0.03721986  0.14078249  0.97498778    -0.48100
O473        O  0.09213812  0.21956479  0.96864658    -0.54500
C474        C  0.11131319  0.14006134  0.92122639     0.85600
O475        O  0.13030346  0.16106810  0.55153570    -0.56400
O476        O  0.03662618  0.18136725  0.53124864    -0.59700
C477        C  0.18245969  0.41954796  0.75152412    -0.02000
C478        C  0.80949810  0.41130242  0.74807377    -0.02000
In479      In  0.91784824  0.34460929  0.49507129     1.36900
C480        C  0.91251174  0.27289984  0.99423213     0.78000
O481        O  0.87157167  0.36753919  0.95634541    -0.60400
O482        O  0.91332115  0.35229203  0.91415216    -0.51300
C483        C  0.88639618  0.37697564  0.57033236     0.70700
O484        O  0.87547702  0.35009576  0.54687407    -0.46200
C485        C  0.98146316  0.35667606  0.50570662     0.75400
O486        O  0.90219542  0.29117352  0.52930046    -0.58000
O487        O  0.96210143  0.37808433  0.98030519    -0.48100
O488        O  0.93008913  0.29077671  0.96480276    -0.54500
C489        C  0.88378458  0.36292598  0.91463209     0.85600
O490        O  0.91397415  0.38852309  0.55474502    -0.56400
O491        O  0.96560133  0.33223246  0.52814288    -0.59700
In492      In  0.08254212  0.35105656  0.50569587     1.36900
C493        C  0.09098897  0.27855096  0.50614369     0.78000
O494        O  0.12402705  0.35457594  0.55406163    -0.60400
O495        O  0.08524666  0.39394012  0.56455698    -0.51300
C496        C  0.11225234  0.37402526  0.92940670     0.70700
O497        O  0.11944821  0.38449410  0.97097055    -0.46200
C498        C  0.01450444  0.35941350  0.01086237     0.75400
O499        O  0.08856724  0.29641168  0.96979589    -0.58000
O500        O  0.03274115  0.33594056  0.53370160    -0.48100
O501        O  0.08646517  0.29702822  0.54422509    -0.54500
C502        C  0.11274002  0.38174417  0.57793950     0.85600
O503        O  0.08767677  0.35308963  0.92828320    -0.56400
O504        O  0.03271990  0.37911866  0.98424563    -0.59700
C505        C  0.31330064  0.16697595  0.76510113    -0.02000
C506        C  0.68752948  0.15510116  0.74739746    -0.02000
In507      In  0.58008200  0.08767253  0.50476710     1.36900
C508        C  0.57967880  0.01485917  0.50652432     0.78000
O509        O  0.62639720  0.09897876  0.54224384    -0.60400
O510        O  0.58199115  0.10224019  0.58402712    -0.51300
C511        C  0.61845112  0.11848485  0.93092552     0.70700
O512        O  0.62737459  0.08924511  0.95113796    -0.46200
C513        C  0.51937524  0.09933436  0.99763532     0.75400
O514        O  0.58437057  0.03113368  0.96606467    -0.58000
O515        O  0.53305283  0.11785678  0.52909721    -0.48100
O516        O  0.58011585  0.03404670  0.54416815    -0.54500
C517        C  0.61301966  0.10380889  0.58321863     0.85600
O518        O  0.59177260  0.13205624  0.94808102    -0.56400
O519        O  0.53475168  0.07595893  0.97174074    -0.59700
In520      In  0.41374173  0.09313841  0.50756098     1.36900
C521        C  0.41339627  0.02189673  0.00637581     0.78000
O522        O  0.37035970  0.10907908  0.97240793    -0.60400
O523        O  0.41491936  0.12276341  0.93567598    -0.51300
C524        C  0.38185688  0.12037585  0.58441991     0.70700
O525        O  0.37593651  0.08912099  0.56701448    -0.46200
C526        C  0.47922949  0.10056421  0.50212996     0.75400
O527        O  0.41896746  0.03816528  0.54309729    -0.58000
O528        O  0.46688929  0.07938287  0.97365131    -0.48100
O529        O  0.40546047  0.04135721  0.97122501    -0.54500
C530        C  0.38399523  0.12140571  0.93486931     0.85600
O531        O  0.40472068  0.13773066  0.56291761    -0.56400
O532        O  0.46180992  0.11624990  0.53472295    -0.59700
C533        C  0.31232661  0.33579890  0.74798440    -0.02000
C534        C  0.68307402  0.32176271  0.74659623    -0.02000
In535      In  0.57962623  0.40300833  0.50383926     1.36900
C536        C  0.58399091  0.47465346  0.00335456     0.78000
O537        O  0.61556315  0.40949621  0.93526340    -0.60400
O538        O  0.60142961  0.35506908  0.95387376    -0.51300
C539        C  0.61369812  0.37460934  0.57540812     0.70700
O540        O  0.62552004  0.39771453  0.54628768    -0.46200
C541        C  0.51424859  0.39490826  0.50614291     0.75400
O542        O  0.58722836  0.45636230  0.54169228    -0.58000
O543        O  0.53664700  0.38804191  0.96126958    -0.48100
O544        O  0.58328031  0.45688037  0.96449227    -0.54500
C545        C  0.61669764  0.37578468  0.92455834     0.85600
O546        O  0.58468703  0.36503304  0.56673930    -0.56400
O547        O  0.52947443  0.41192547  0.53795022    -0.59700
In548      In  0.41353687  0.40868365  0.49710185     1.36900
C549        C  0.40962781  0.48131027  0.50247800     0.78000
O550        O  0.36987636  0.40947126  0.54683097    -0.60400
O551        O  0.40283053  0.36352122  0.54923492    -0.51300
C552        C  0.38677034  0.38375250  0.91572520     0.70700
O553        O  0.40894330  0.40789318  0.91360213    -0.46200
C554        C  0.48175833  0.39362386  0.99565477     0.75400
O555        O  0.40158152  0.46457499  0.96832134    -0.58000
O556        O  0.46132622  0.41534907  0.53395599    -0.48100
O557        O  0.41125066  0.46142985  0.53915077    -0.54500
C558        C  0.37705062  0.37927009  0.56629469     0.85600
O559        O  0.38155075  0.37070015  0.95711106    -0.56400
O560        O  0.46635835  0.39304951  0.95702441    -0.59700
C561        C  0.64035773  0.32429247  0.87561835    -0.11800
C562        C  0.63329513  0.36189311  0.88016128     0.05200
C563        C  0.63707748  0.38422936  0.83937233    -0.07100
C564        C  0.64824097  0.36867233  0.79609836    -0.07900
C565        C  0.66118887  0.33246527  0.79270809    -0.02400
C566        C  0.65123316  0.30878502  0.83151843     0.04400
N567        N  0.63930677  0.27243663  0.82325422     0.66900
H568        H  0.63344118  0.30597004  0.90480289     0.15800
H569        H  0.64568812  0.38529531  0.76453199     0.15500
N570        N  0.62915832  0.42269263  0.84041756     0.74600
O571        O  0.65255611  0.24578663  0.84455943    -0.38800
O572        O  0.60889423  0.27020036  0.81599059    -0.38800
O573        O  0.65223530  0.44554015  0.84369187    -0.39500
O574        O  0.60186827  0.43345826  0.82485625    -0.39500
C575        C  0.61429503  0.34197331  0.65332295    -0.11800
C576        C  0.63172338  0.36074527  0.61720139     0.05200
C577        C  0.66554520  0.36670683  0.62270650    -0.07100
C578        C  0.68116592  0.35322280  0.66305498    -0.07900
C579        C  0.66397528  0.33542752  0.70125943    -0.02400
C580        C  0.62948032  0.32980572  0.69494977     0.04400
N581        N  0.60902854  0.31108405  0.72929309     0.66900
H582        H  0.58817811  0.33714472  0.64983351     0.15800
H583        H  0.70727276  0.35737917  0.66363687     0.15500
N584        N  0.68466606  0.38704279  0.58823540     0.74600
O585        O  0.59040003  0.33027341  0.75685755    -0.38800
O586        O  0.60035029  0.27868942  0.71936265    -0.37200
O587        O  0.68973812  0.42078467  0.59604810    -0.39500
O588        O  0.70319855  0.36984329  0.55841759    -0.39500
C589        C  0.31985079  0.34731661  0.83645942    -0.11800
C590        C  0.33366766  0.35144209  0.78935520     0.05200
C591        C  0.36492982  0.36947570  0.78534415    -0.07100
C592        C  0.38142743  0.37927170  0.82713526    -0.07900
C593        C  0.36816047  0.37238861  0.87320230    -0.02400
C594        C  0.33676059  0.35653931  0.87756670     0.04400
N595        N  0.32124625  0.34970984  0.92339694     0.66900
H596        H  0.29589153  0.33473700  0.84146891     0.15800
H597        H  0.40501657  0.39284102  0.82331932     0.15500
N598        N  0.37996842  0.38076064  0.74069236     0.74600
O599        O  0.29997001  0.37239186  0.93986448    -0.38800
O600        O  0.32179565  0.31740520  0.93996976    -0.38800
O601        O  0.37309915  0.41234941  0.72496196    -0.39500
O602        O  0.40743629  0.36667621  0.72812055    -0.39500
C603        C  0.31213199  0.36851345  0.66517811    -0.11800
C604        C  0.32738931  0.34336766  0.69656068     0.05200
C605        C  0.35605411  0.32478778  0.67740611    -0.07100
C606        C  0.37119240  0.33623336  0.63432639    -0.07900
C607        C  0.35774852  0.36453813  0.60735585    -0.02400
C608        C  0.32689928  0.37927661  0.62172293     0.04400
N609        N  0.30962405  0.40468563  0.59231134     0.66900
H610        H  0.28839765  0.38066574  0.67319665     0.15800
H611        H  0.39384472  0.32267675  0.62207688     0.15500
N612        N  0.36843550  0.29175045  0.69755431     0.74600
O613        O  0.28996098  0.39233314  0.56201817    -0.38800
O614        O  0.30735311  0.43807087  0.60505305    -0.38800
O615        O  0.36209943  0.26204422  0.67607415    -0.39500
O616        O  0.39347215  0.29312034  0.72321480    -0.39500
C617        C  0.67521200  0.25814743  0.70587983    -0.11800
C618        C  0.68882977  0.27857876  0.74371952     0.05200
C619        C  0.70667968  0.25753081  0.77782784    -0.07100
C620        C  0.70719777  0.21852987  0.77502466    -0.07900
C621        C  0.68970859  0.19819510  0.74042571    -0.02400
C622        C  0.67335442  0.21968611  0.70501073     0.04400
N623        N  0.65297100  0.20474027  0.66850180     0.66900
H624        H  0.66384557  0.27160846  0.67618059     0.15800
H625        H  0.72052036  0.20374574  0.80211372     0.15500
N626        N  0.72414934  0.27458026  0.81618069     0.74600
O627        O  0.66171016  0.20936629  0.62504930    -0.38800
O628        O  0.62267220  0.20055344  0.67777580    -0.38800
O629        O  0.71129383  0.27503890  0.85800782    -0.39500
O630        O  0.75509986  0.27638455  0.81249672    -0.39500
C631        C  0.64132016  0.11459231  0.71176827    -0.11800
C632        C  0.67031175  0.13543163  0.70468260     0.05200
C633        C  0.68361004  0.13582094  0.65637387    -0.07100
C634        C  0.66441859  0.12495252  0.61815151    -0.07900
C635        C  0.63275425  0.11140221  0.62579851    -0.02400
C636        C  0.62206948  0.10371261  0.67319066     0.04400
N637        N  0.59311147  0.08262319  0.68276842     0.66900
H638        H  0.63326019  0.10609642  0.74724956     0.15800
H639        H  0.67445784  0.12794068  0.58183030     0.15500
N640        N  0.71667059  0.14593838  0.64434292     0.74600
O641        O  0.59596030  0.04849895  0.69037588    -0.38800
O642        O  0.56649545  0.09892444  0.69460367    -0.38800
O643        O  0.73613599  0.12068923  0.62979335    -0.39500
O644        O  0.72276386  0.17865440  0.63206919    -0.39500
C645        C  0.61921599  0.14995039  0.85174661    -0.11800
C646        C  0.63677931  0.13393474  0.88867909     0.05200
C647        C  0.67117962  0.13067617  0.88269043    -0.07100
C648        C  0.68675001  0.14092770  0.83921912    -0.07900
C649        C  0.66883087  0.15084201  0.79809313    -0.02400
C650        C  0.63447298  0.15870965  0.80723388     0.04400
N651        N  0.61385171  0.17462963  0.77214315     0.66900
H652        H  0.59287851  0.15428506  0.85659217     0.15800
H653        H  0.71333935  0.13948086  0.83789464     0.15500
N654        N  0.69093168  0.11646402  0.92007368     0.74600
O655        O  0.58899657  0.15693050  0.75916227    -0.38800
O656        O  0.61269433  0.20917572  0.76964158    -0.38800
O657        O  0.70055400  0.08330860  0.91773371    -0.39500
O658        O  0.70572329  0.13869701  0.94674311    -0.39500
C659        C  0.29460798  0.22879749  0.72764588    -0.11800
C660        C  0.31119183  0.21092280  0.76543691     0.05200
C661        C  0.32889228  0.23520467  0.79629147    -0.07100
C662        C  0.32813399  0.27343128  0.78923150    -0.07900
C663        C  0.30963281  0.29181809  0.75395635    -0.02400
C664        C  0.29324208  0.26769716  0.72179024     0.04400
N665        N  0.27720044  0.28139003  0.68028555     0.66900
H666        H  0.28291336  0.21201437  0.70087250     0.15800
H667        H  0.34508855  0.28809731  0.81112063     0.15500
N668        N  0.35002210  0.22323624  0.83385035     0.74600
O669        O  0.29375279  0.28383432  0.64133514    -0.38800
O670        O  0.24636575  0.27820336  0.67821731    -0.38800
O671        O  0.38047592  0.21997940  0.82462111    -0.39500
O672        O  0.34145496  0.23116348  0.87667049    -0.39500
C673        C  0.31482995  0.14068652  0.67820752    -0.11800
C674        C  0.33228811  0.15712578  0.71619860     0.05200
C675        C  0.36616839  0.16584843  0.70515164    -0.07100
C676        C  0.38106385  0.15481078  0.66122949    -0.07900
C677        C  0.36396189  0.13485863  0.62736174    -0.02400
C678        C  0.33037994  0.12819002  0.63581743     0.04400
N679        N  0.31121981  0.10939595  0.60127414     0.66900
H680        H  0.28852773  0.13672785  0.68041933     0.15800
H681        H  0.40691466  0.16067964  0.65446027     0.15500
N682        N  0.38708844  0.18413335  0.73786107     0.74600
O683        O  0.30538267  0.07558103  0.60707850    -0.38800
O684        O  0.29325448  0.12800604  0.57404502    -0.38800
O685        O  0.41023023  0.16577011  0.75567649    -0.39500
O686        O  0.39180943  0.21798507  0.73171104    -0.39500
C687        C  0.33412375  0.14775623  0.89810444    -0.11800
C688        C  0.36531868  0.13130707  0.89251731     0.05200
C689        C  0.37691593  0.12091441  0.84640794    -0.07100
C690        C  0.35882819  0.13019251  0.80657526    -0.07900
C691        C  0.33018711  0.15230526  0.81054116    -0.02400
C692        C  0.31613868  0.15780405  0.85785981     0.04400
N693        N  0.28377287  0.17317511  0.86591594     0.66900
H694        H  0.32380948  0.15328781  0.93383671     0.15800
H695        H  0.36719336  0.11866724  0.77250521     0.15500
N696        N  0.40581019  0.09846825  0.83950184     0.74600
O697        O  0.26001328  0.15148266  0.87229655    -0.38800
O698        O  0.28046080  0.20588290  0.88100639    -0.38800
O699        O  0.40274588  0.06436821  0.83189055    -0.39500
O700        O  0.43301709  0.11356974  0.82963254    -0.39500
C701        C  0.77719926  0.35174896  0.73705049    -0.11800
C702        C  0.77580628  0.39037205  0.74639953     0.05200
C703        C  0.74401842  0.40564978  0.75453608    -0.07100
C704        C  0.71613832  0.38296655  0.75495923    -0.07900
C705        C  0.71711692  0.34392574  0.74786189    -0.02400
C706        C  0.74885394  0.32951226  0.73375055     0.04400
N707        N  0.75281506  0.29540474  0.70766601     0.66900
H708        H  0.80082939  0.33925517  0.72782641     0.15800
H709        H  0.69516007  0.39767466  0.75673410     0.15500
N710        N  0.73792164  0.44418810  0.76202372     0.74600
O711        O  0.77466997  0.27252459  0.71960437    -0.38800
O712        O  0.74182924  0.29325616  0.66580171    -0.38800
O713        O  0.72556791  0.46225060  0.72825039    -0.39500
O714        O  0.73266773  0.45571884  0.80443464    -0.39500
C715        C  0.85766217  0.37272463  0.78412160    -0.11800
C716        C  0.82692299  0.39111730  0.79039733     0.05200
C717        C  0.81268854  0.39085212  0.83816316    -0.07100
C718        C  0.83141324  0.37986573  0.87701688    -0.07900
C719        C  0.86437653  0.36910155  0.87083519    -0.02400
C720        C  0.87707191  0.36386360  0.82348021     0.04400
N721        N  0.91013327  0.35146859  0.81424835     0.66900
H722        H  0.86797766  0.36634834  0.74891296     0.15800
H723        H  0.82028195  0.38185072  0.91285894     0.15500
N724        N  0.78009708  0.40405464  0.84926205     0.74600
O725        O  0.91534162  0.31828148  0.80229939    -0.38800
O726        O  0.93213385  0.37500368  0.80530600    -0.38800
O727        O  0.75764361  0.38062942  0.85583478    -0.39500
O728        O  0.77669032  0.43522013  0.86924238    -0.39500
C729        C  0.86156486  0.41817730  0.69324588    -0.11800
C730        C  0.82824826  0.40708489  0.69768897     0.05200
C731        C  0.81347341  0.39622058  0.65359931    -0.07100
C732        C  0.83331757  0.38746670  0.61318077    -0.07900
C733        C  0.86731939  0.39250222  0.61230738    -0.02400
C734        C  0.88124157  0.41031803  0.65188297     0.04400
N735        N  0.91542307  0.41905098  0.65205959     0.66900
H736        H  0.87313312  0.43102915  0.72342269     0.15800
H737        H  0.82161319  0.37726597  0.58126760     0.15500
N738        N  0.77874125  0.39728113  0.64614005     0.74600
O739        O  0.92408959  0.45162401  0.64285858    -0.38800
O740        O  0.93476443  0.39823362  0.67425027    -0.38800
O741        O  0.76649963  0.42651558  0.62960176    -0.39500
O742        O  0.76487470  0.36738322  0.63619600    -0.39500
C743        C  0.24840121  0.33935609  0.75728500    -0.11800
C744        C  0.27851172  0.35770413  0.75511119     0.05200
C745        C  0.27643664  0.39725034  0.75973619    -0.07100
C746        C  0.24596703  0.41586399  0.76096905    -0.07900
C747        C  0.21616250  0.39765243  0.75442170    -0.02400
C748        C  0.21809415  0.35812960  0.75467567     0.04400
N749        N  0.18971407  0.33560110  0.75166818     0.66900
H750        H  0.24768394  0.30978013  0.75979143     0.15800
H751        H  0.24643432  0.44522370  0.76695190     0.15500
N752        N  0.30484235  0.42002634  0.76186132     0.74600
O753        O  0.18020759  0.31865317  0.78902405    -0.38800
O754        O  0.18327507  0.32196875  0.71122370    -0.38800
O755        O  0.31171515  0.44000523  0.72600661    -0.39500
O756        O  0.31373101  0.43071105  0.80269473    -0.39500
C757        C  0.13484873  0.42813565  0.69482229    -0.11800
C758        C  0.16649100  0.41302981  0.70206042     0.05200
C759        C  0.18257812  0.39647340  0.66083828    -0.07100
C760        C  0.16422342  0.38692005  0.62121286    -0.07900
C761        C  0.13103467  0.39682712  0.61833086    -0.02400
C762        C  0.11689582  0.41997807  0.65405645     0.04400
N763        N  0.08432626  0.43481052  0.65040533     0.66900
H764        H  0.12294643  0.44471772  0.72230582     0.15800
H765        H  0.17660377  0.37259832  0.59139612     0.15500
N766        N  0.21759599  0.39343186  0.65467110     0.74600
O767        O  0.06021058  0.41767458  0.66877836    -0.38800
O768        O  0.08067949  0.46821570  0.63917884    -0.38800
O769        O  0.23275476  0.42035122  0.63628677    -0.39500
O770        O  0.23026288  0.36173380  0.64936973    -0.39500
C771        C  0.17683400  0.41165127  0.84117127    -0.11800
C772        C  0.16257600  0.40454638  0.79612457     0.05200
C773        C  0.13252989  0.38392694  0.79709603    -0.07100
C774        C  0.11734066  0.37502174  0.84116598    -0.07900
C775        C  0.13069613  0.38462317  0.88506980    -0.02400
C776        C  0.16127552  0.40250379  0.88493652     0.04400
N777        N  0.17680600  0.41239811  0.92852900     0.66900
H778        H  0.19991727  0.42631805  0.84248046     0.15800
H779        H  0.09443375  0.35994079  0.84067982     0.15500
N780        N  0.11659348  0.37015739  0.75557877     0.74600
O781        O  0.19995126  0.39238165  0.94322333    -0.38800
O782        O  0.17399973  0.44509656  0.94394342    -0.38800
O783        O  0.12198762  0.33710841  0.74322877    -0.39500
O784        O  0.08862351  0.38348458  0.74690386    -0.39500
C785        C  0.75693655  0.08265488  0.77042635    -0.11800
C786        C  0.78586124  0.09818338  0.74943922     0.05200
C787        C  0.78052801  0.13105299  0.72230226    -0.07100
C788        C  0.75147195  0.15217334  0.73107123    -0.07900
C789        C  0.72233667  0.13543224  0.74875605    -0.02400
C790        C  0.72557064  0.09789228  0.76277097     0.04400
N791        N  0.69783286  0.07376734  0.76405977     0.66900
H792        H  0.75798014  0.05638907  0.78854547     0.15800
H793        H  0.74994115  0.17909802  0.71486119     0.15500
N794        N  0.79829927  0.13793453  0.67779621     0.74600
O795        O  0.69255016  0.05392734  0.72772992    -0.38800
O796        O  0.68261890  0.06708339  0.80316420    -0.38800
O797        O  0.80208321  0.11208829  0.64748146    -0.39500
O798        O  0.80266726  0.17060236  0.66372319    -0.39500
C799        C  0.82409179  0.01366726  0.79700726    -0.11800
C800        C  0.81450313  0.03536940  0.75779054     0.05200
C801        C  0.79809348  0.01588940  0.72095594    -0.07100
C802        C  0.79604551  0.47729841  0.72086815    -0.07900
C803        C  0.80898477  0.45461251  0.75698933    -0.02400
C804        C  0.82553664  0.47411111  0.79416552     0.04400
N805        N  0.84789606  0.45713630  0.82637044     0.66900
H806        H  0.83441388  0.02590365  0.82836210     0.15800
H807        H  0.78425711  0.46470102  0.69118630     0.15500
N808        N  0.78565352  0.03405253  0.67960594     0.74600
O809        O  0.87670624  0.44954633  0.81090049    -0.38800
O810        O  0.84328133  0.46196137  0.87106663    -0.38800
O811        O  0.80088589  0.02958268  0.63976840    -0.39500
O812        O  0.75533937  0.04179865  0.67911661    -0.39500
C813        C  0.85924324  0.06421199  0.68293674    -0.11800
C814        C  0.84661109  0.09009487  0.71727196     0.05200
C815        C  0.86028511  0.12647538  0.71454106    -0.07100
C816        C  0.87855026  0.13707114  0.67356888    -0.07900
C817        C  0.88555283  0.11241938  0.63567677    -0.02400
C818        C  0.87778210  0.07505891  0.64220001     0.04400
N819        N  0.88776008  0.04770075  0.60751852     0.66900
H820        H  0.85464967  0.03514362  0.68648052     0.15800
H821        H  0.88662586  0.16540736  0.67105297     0.15500
N822        N  0.85643080  0.15323911  0.75253296     0.74600
O823        O  0.91362363  0.02911487  0.61411905    -0.38800
O824        O  0.86710062  0.03601161  0.57824491    -0.38800
O825        O  0.83678795  0.17999305  0.74764758    -0.39500
O826        O  0.87987074  0.15722195  0.78080579    -0.39500
C827        C  0.81775078  0.11328695  0.83950546    -0.11800
C828        C  0.83582738  0.09106283  0.80581409     0.05200
C829        C  0.86920177  0.08201992  0.81746746    -0.07100
C830        C  0.88248150  0.09480554  0.86011908    -0.07900
C831        C  0.86463571  0.11773102  0.89211375    -0.02400
C832        C  0.83178858  0.12682480  0.88157902     0.04400
N833        N  0.81204740  0.14981674  0.91298530     0.66900
H834        H  0.79255593  0.12128644  0.83346989     0.15800
H835        H  0.90786718  0.08772144  0.86713879     0.15500
N836        N  0.89094255  0.06129381  0.78577465     0.74600
O837        O  0.80959120  0.18373776  0.90380144    -0.38800
O838        O  0.79059541  0.13513041  0.94026445    -0.38800
O839        O  0.91225359  0.07858347  0.76106283    -0.39500
O840        O  0.89679911  0.02798889  0.79544243    -0.39500
C841        C  0.24775229  0.08756380  0.76175921    -0.11800
C842        C  0.21808502  0.10620250  0.75390750     0.05200
C843        C  0.21952818  0.14587679  0.75493907    -0.07100
C844        C  0.24911213  0.16433410  0.76330349    -0.07900
C845        C  0.27936089  0.14570147  0.76607957    -0.02400
C846        C  0.27777108  0.10605870  0.76636547     0.04400
N847        N  0.30639594  0.08328436  0.77084930     0.66900
H848        H  0.24805386  0.05800826  0.76574092     0.15800
H849        H  0.24780022  0.19392514  0.76658346     0.15500
N850        N  0.19130660  0.16885584  0.74760039     0.74600
O851        O  0.31151190  0.06868949  0.81106739    -0.38800
O852        O  0.31891649  0.06823457  0.73350356    -0.38800
O853        O  0.17945885  0.18686349  0.78312143    -0.39500
O854        O  0.18729524  0.18177597  0.70614195    -0.39500
C855        C  0.20530136  0.48239953  0.72142385    -0.11800
C856        C  0.18487610  0.46338104  0.75511628     0.05200
C857        C  0.16375755  0.48669272  0.78467176    -0.07100
C858        C  0.16335769  0.02261772  0.78318235    -0.07900
C859        C  0.18595111  0.04113655  0.75229870    -0.02400
C860        C  0.20462037  0.01783986  0.72016432     0.04400
N861        N  0.22410405  0.03239554  0.68112354     0.66900
H862        H  0.21987153  0.46672747  0.69554182     0.15800
H863        H  0.14479641  0.03776821  0.80388269     0.15500
N864        N  0.13647965  0.47373580  0.81369136     0.74600
O865        O  0.25507118  0.03019982  0.68285667    -0.38800
O866        O  0.21139382  0.03430963  0.64037459    -0.38800
O867        O  0.13772896  0.47786318  0.85866857    -0.39500
O868        O  0.10835777  0.47335516  0.79564060    -0.39500
C869        C  0.12088044  0.09478634  0.64706413    -0.11800
C870        C  0.13840385  0.11570862  0.61312203     0.05200
C871        C  0.17211472  0.12183064  0.62019634    -0.07100
C872        C  0.18654329  0.11035529  0.66275198    -0.07900
C873        C  0.16815379  0.09339622  0.70044666    -0.02400
C874        C  0.13528257  0.08279903  0.68954285     0.04400
N875        N  0.11576710  0.05967506  0.72031590     0.66900
H876        H  0.09534098  0.08818935  0.64117647     0.15800
H877        H  0.21263389  0.11515134  0.66567786     0.15500
N878        N  0.19257013  0.13859905  0.58396885     0.74600
O879        O  0.09229120  0.07398829  0.74486467    -0.38800
O880        O  0.11402392  0.02594833  0.70941858    -0.38800
O881        O  0.20190163  0.17132946  0.59000613    -0.39500
O882        O  0.20820019  0.11819229  0.55413029    -0.39500
C883        C  0.13738831  0.12390181  0.79010516    -0.11800
C884        C  0.16487864  0.10019179  0.79451602     0.05200
C885        C  0.17500936  0.09199896  0.84225741    -0.07100
C886        C  0.15646014  0.10467536  0.88198277    -0.07900
C887        C  0.12881805  0.12724608  0.87689136    -0.02400
C888        C  0.11977459  0.13774524  0.83038338     0.04400
N889        N  0.09317854  0.16291210  0.82299831     0.66900
H890        H  0.13005952  0.13358623  0.75536115     0.15800
H891        H  0.16439019  0.09724424  0.91754671     0.15500
N892        N  0.20346320  0.06980112  0.85174980     0.74600
O893        O  0.09949586  0.19655651  0.81660998    -0.38800
O894        O  0.06602028  0.15053592  0.80952570    -0.38800
O895        O  0.22938728  0.08587662  0.86357605    -0.39500
O896        O  0.19933188  0.03710482  0.86580579    -0.39500
C897        C  0.18549751  0.58833462  0.24578726    -0.02000
C898        C  0.82186730  0.58105271  0.26035998    -0.02000
In899      In  0.91778207  0.66026663  0.00653253     1.36900
C900        C  0.91225904  0.73315868  0.00059042     0.78000
O901        O  0.90365693  0.66497559  0.08468308    -0.60400
O902        O  0.90094386  0.61228339  0.05215424    -0.51300
C903        C  0.88601560  0.63094825  0.43761127     0.70700
O904        O  0.87552319  0.65686074  0.46440586    -0.46200
C905        C  0.98684219  0.65021994  0.50603645     0.75400
O906        O  0.93994109  0.71351754  0.48384600    -0.58000
O907        O  0.96623909  0.65144010  0.04253412    -0.48100
O908        O  0.89123698  0.71409368  0.02321615    -0.54500
C909        C  0.89674345  0.63142875  0.08992750     0.85600
O910        O  0.91402526  0.61884633  0.44843491    -0.56400
O911        O  0.97016524  0.65192620  0.46861479    -0.59700
In912      In  0.08397643  0.66800733  0.00208805     1.36900
C913        C  0.08924270  0.73741680  0.51203426     0.78000
O914        O  0.11338680  0.62199072  0.45742987    -0.60400
O915        O  0.09749907  0.67082798  0.42316435    -0.51300
C916        C  0.12030024  0.63768287  0.07028752     0.70700
O917        O  0.09414096  0.62353000  0.05550519    -0.46200
C918        C  0.01931053  0.65441709  0.00309087     0.75400
O919        O  0.07115478  0.72063570  0.04204316    -0.58000
O920        O  0.03967601  0.65417959  0.46608160    -0.48100
O921        O  0.11067157  0.71962022  0.48763978    -0.54500
C922        C  0.11251773  0.64042279  0.41914400     0.85600
O923        O  0.12848491  0.66702443  0.04901218    -0.56400
O924        O  0.03566698  0.65553900  0.04070666    -0.59700
C925        C  0.18171854  0.92140634  0.25307632    -0.02000
C926        C  0.80825968  0.91411994  0.25480838    -0.02000
In927      In  0.91284487  0.84671337  0.99856679     1.36900
C928        C  0.91597271  0.77221234  0.50143761     0.78000
O929        O  0.88668989  0.88442234  0.45344701    -0.60400
O930        O  0.90511487  0.83610845  0.41938826    -0.51300
C931        C  0.88223345  0.87717690  0.07533618     0.70700
O932        O  0.87201247  0.84920358  0.05336653    -0.46200
C933        C  0.97567773  0.86103880  0.01083270     0.75400
O934        O  0.89052787  0.79272573  0.02279775    -0.58000
O935        O  0.96412995  0.87221181  0.47075089    -0.48100
O936        O  0.93880132  0.79006281  0.48131279    -0.54500
C937        C  0.88731699  0.86440069  0.41622372     0.85600
O938        O  0.90854362  0.89047167  0.05765724    -0.56400
O939        O  0.95933580  0.83903118  0.03676735    -0.59700
In940      In  0.07645240  0.85383322  0.01334267     1.36900
C941        C  0.08444502  0.78097031  0.01425703     0.78000
O942        O  0.11688512  0.85522595  0.06332745    -0.60400
O943        O  0.08174580  0.89901075  0.06890888    -0.51300
C944        C  0.11113089  0.87527789  0.43011828     0.70700
O945        O  0.09154575  0.84845228  0.43030080    -0.46200
C946        C  0.01623881  0.86126484  0.50755584     0.75400
O947        O  0.10700065  0.79730891  0.48835723    -0.58000
O948        O  0.02630098  0.84350552  0.04409574    -0.48100
O949        O  0.07192202  0.79854587  0.04947282    -0.54500
C950        C  0.10799591  0.88479761  0.08394560     0.85600
O951        O  0.11391306  0.89107142  0.47030334    -0.56400
O952        O  0.03487264  0.87061970  0.47272688    -0.59700
C953        C  0.31450319  0.66951270  0.26248599    -0.02000
C954        C  0.68735482  0.65558393  0.25491639    -0.02000
In955      In  0.58322169  0.58751603  0.00794312     1.36900
C956        C  0.58469473  0.51462123  0.00477524     0.78000
O957        O  0.62483395  0.61147617  0.04735312    -0.60400
O958        O  0.58535932  0.59026106  0.08954185    -0.51300
C959        C  0.61611709  0.61913717  0.43639293     0.70700
O960        O  0.62377852  0.58899174  0.45541665    -0.46200
C961        C  0.51606187  0.59959200  0.50300384     0.75400
O962        O  0.58036064  0.53425610  0.46820894    -0.58000
O963        O  0.53629823  0.61820356  0.03207565    -0.48100
O964        O  0.58408401  0.53242036  0.04358547    -0.54500
C965        C  0.61361667  0.60428928  0.08894195     0.85600
O966        O  0.59020870  0.63404826  0.45432938    -0.56400
O967        O  0.53180250  0.57542475  0.47907597    -0.59700
In968      In  0.41731174  0.59392693  0.00877101     1.36900
C969        C  0.40991815  0.52127578  0.50507906     0.78000
O970        O  0.36731489  0.60870275  0.47101131    -0.60400
O971        O  0.41245445  0.62151668  0.43537156    -0.51300
C972        C  0.38581614  0.62244432  0.08490060     0.70700
O973        O  0.38210101  0.58959855  0.07133682    -0.46200
C974        C  0.48258245  0.60248306  0.00336044     0.75400
O975        O  0.42694133  0.53832799  0.04086204    -0.58000
O976        O  0.46436869  0.57629582  0.48083245    -0.48100
O977        O  0.40511216  0.54085916  0.46874485    -0.54500
C978        C  0.38155933  0.62061029  0.43371903     0.85600
O979        O  0.40668744  0.64064257  0.06043787    -0.56400
O980        O  0.46509004  0.61696403  0.03680771    -0.59700
C981        C  0.31172981  0.83803255  0.24918939    -0.02000
C982        C  0.68169030  0.82279065  0.25674511    -0.02000
In983      In  0.58138750  0.90070869  0.00822157     1.36900
C984        C  0.57878865  0.97490325  0.50749525     0.78000
O985        O  0.60665109  0.91065968  0.43969659    -0.60400
O986        O  0.59759265  0.85580551  0.46223949    -0.51300
C987        C  0.61470101  0.87392725  0.08199925     0.70700
O988        O  0.62484092  0.90024110  0.05645309    -0.46200
C989        C  0.51581012  0.89294193  0.00719052     0.75400
O990        O  0.58450361  0.95553079  0.04485433    -0.58000
O991        O  0.53141862  0.88055120  0.47410502    -0.48100
O992        O  0.57489841  0.95607749  0.47005938    -0.54500
C993        C  0.61026828  0.87682096  0.43080977     0.85600
O994        O  0.58782792  0.86053147  0.06884753    -0.56400
O995        O  0.53069090  0.90577582  0.04245766    -0.59700
In996      In  0.41505878  0.90909288  0.99854553     1.36900
C997        C  0.41257520  0.98190795  0.00428954     0.78000
O998        O  0.37123390  0.91201452  0.04862410    -0.60400
O999        O  0.40270926  0.86478222  0.05074762    -0.51300
C1000       C  0.38257727  0.88428467  0.42057245     0.70700
O1001       O  0.40560990  0.90740373  0.41917890    -0.46200
C1002       C  0.47665273  0.89341202  0.50525236     0.75400
O1003       O  0.40455070  0.96321148  0.46589058    -0.58000
O1004       O  0.46239249  0.90925499  0.03793800    -0.48100
O1005       O  0.41831018  0.96205749  0.03995212    -0.54500
C1006       C  0.37762860  0.88159232  0.06818540     0.85600
O1007       O  0.37589352  0.87173575  0.46184161    -0.56400
O1008       O  0.46094326  0.88366131  0.46903267    -0.59700
C1009       C  0.63606587  0.82562553  0.38358473    -0.11800
C1010       C  0.62722260  0.86287379  0.38663506     0.05200
C1011       C  0.63064215  0.88457123  0.34515296    -0.07100
C1012       C  0.64418922  0.86909079  0.30313818    -0.07900
C1013       C  0.65839093  0.83333258  0.30149787    -0.02400
C1014       C  0.64811615  0.80981599  0.34029501     0.04400
N1015       N  0.63652806  0.77329483  0.33202350     0.66900
H1016       H  0.62943846  0.80749195  0.41310388     0.15800
H1017       H  0.64409740  0.88612271  0.27132676     0.15500
N1018       N  0.62047234  0.92238508  0.34440072     0.74600
O1019       O  0.64939347  0.74690904  0.35432215    -0.38800
O1020       O  0.60632847  0.77074050  0.32337653    -0.38800
O1021       O  0.64186419  0.94701387  0.34935100    -0.39500
O1022       O  0.59355200  0.93078903  0.32561266    -0.39500
C1023       C  0.61460441  0.84081717  0.15976058    -0.11800
C1024       C  0.63211816  0.86069188  0.12483140     0.05200
C1025       C  0.66534174  0.86863651  0.13263608    -0.07100
C1026       C  0.68033287  0.85628476  0.17424200    -0.07900
C1027       C  0.66323778  0.83640714  0.21060525    -0.02400
C1028       C  0.62918828  0.82910612  0.20214166     0.04400
N1029       N  0.60851328  0.80947486  0.23529064     0.66900
H1030       H  0.58884891  0.83476465  0.15470555     0.15800
H1031       H  0.70589541  0.86263411  0.17707886     0.15500
N1032       N  0.68469796  0.88891409  0.09842435     0.74600
O1033       O  0.58864079  0.82789321  0.26190345    -0.38800
O1034       O  0.60098676  0.77684971  0.22459189    -0.37200
O1035       O  0.69054510  0.92240950  0.10672440    -0.39500
O1036       O  0.70233346  0.87161955  0.06757272    -0.39500
C1037       C  0.31726408  0.84894618  0.33808498    -0.11800
C1038       C  0.33207931  0.85349812  0.29164276     0.05200
C1039       C  0.36339470  0.87147537  0.28924871    -0.07100
C1040       C  0.37916575  0.88037267  0.33190190    -0.07900
C1041       C  0.36477287  0.87342964  0.37724639    -0.02400
C1042       C  0.33313198  0.85811965  0.38006401     0.04400
N1043       N  0.31610786  0.85245404  0.42509707     0.66900
H1044       H  0.29319255  0.83644353  0.34186957     0.15800
H1045       H  0.40292116  0.89370304  0.32933482     0.15500
N1046       N  0.37890988  0.88419396  0.24560183     0.74600
O1047       O  0.29592625  0.87673064  0.44051481    -0.38800
O1048       O  0.31432671  0.82024193  0.44180943    -0.38800
O1049       O  0.37226869  0.91637521  0.23176619    -0.39500
O1050       O  0.40666135  0.87075718  0.23320051    -0.39500
C1051       C  0.31199371  0.87038711  0.16618026    -0.11800
C1052       C  0.32752920  0.84609001  0.19841555     0.05200
C1053       C  0.35695967  0.82839409  0.18049343    -0.07100
C1054       C  0.37226473  0.83992296  0.13759859    -0.07900
C1055       C  0.35842513  0.86750527  0.10973265    -0.02400
C1056       C  0.32719466  0.88161137  0.12323694     0.04400
N1057       N  0.30994190  0.90675522  0.09343987     0.66900
H1058       H  0.28761505  0.88134997  0.17305832     0.15800
H1059       H  0.39531476  0.82687310  0.12607721     0.15500
N1060       N  0.36969377  0.79570070  0.20124162     0.74600
O1061       O  0.29029402  0.89411353  0.06332927    -0.38800
O1062       O  0.30733258  0.94012988  0.10612482    -0.38800
O1063       O  0.36378289  0.76571499  0.18017315    -0.39500
O1064       O  0.39449632  0.79756026  0.22732506    -0.39500
C1065       C  0.67563096  0.75919117  0.21437679    -0.11800
C1066       C  0.68767426  0.77950256  0.25361925     0.05200
C1067       C  0.70457457  0.75824582  0.28850409    -0.07100
C1068       C  0.70552674  0.71919833  0.28504119    -0.07900
C1069       C  0.68929050  0.69892759  0.24893773    -0.02400
C1070       C  0.67402920  0.72064373  0.21279580     0.04400
N1071       N  0.65482790  0.70577616  0.17491862     0.66900
H1072       H  0.66542422  0.77280489  0.18388554     0.15800
H1073       H  0.71823073  0.70428747  0.31265000     0.15500
N1074       N  0.72094616  0.77519949  0.32797522     0.74600
O1075       O  0.66451660  0.71098454  0.13198383    -0.38800
O1076       O  0.62450573  0.70041952  0.18266069    -0.38800
O1077       O  0.70782771  0.77387730  0.36958701    -0.39500
O1078       O  0.75172413  0.77919328  0.32482545    -0.39500
C1079       C  0.64112278  0.61493265  0.21863824    -0.11800
C1080       C  0.67019045  0.63583237  0.21194889     0.05200
C1081       C  0.68363545  0.63604815  0.16381200    -0.07100
C1082       C  0.66453671  0.62555498  0.12533270    -0.07900
C1083       C  0.63286810  0.61178902  0.13235670    -0.02400
C1084       C  0.62206247  0.60390623  0.17977214     0.04400
N1085       N  0.59249167  0.58388176  0.18936741     0.66900
H1086       H  0.63273042  0.60665190  0.25406099     0.15800
H1087       H  0.67504929  0.62824267  0.08924410     0.15500
N1088       N  0.71710664  0.64447640  0.15229633     0.74600
O1089       O  0.59444274  0.55022453  0.20024998    -0.38800
O1090       O  0.56593793  0.60128223  0.19819470    -0.38800
O1091       O  0.73568211  0.61804707  0.13902170    -0.39500
O1092       O  0.72441427  0.67656298  0.13868178    -0.39500
C1093       C  0.61824419  0.65108155  0.35775856    -0.11800
C1094       C  0.63510704  0.63422540  0.39471479     0.05200
C1095       C  0.66942536  0.62961169  0.38922840    -0.07100
C1096       C  0.68564028  0.63980357  0.34626733    -0.07900
C1097       C  0.66831610  0.65082072  0.30510279    -0.02400
C1098       C  0.63407189  0.65955678  0.31362477     0.04400
N1099       N  0.61412812  0.67595621  0.27806552     0.66900
H1100       H  0.59198818  0.65620738  0.36221350     0.15800
H1101       H  0.71217657  0.63749566  0.34542594     0.15500
N1102       N  0.68839950  0.61399047  0.42657043     0.74600
O1103       O  0.58904925  0.65891529  0.26455186    -0.38800
O1104       O  0.61391363  0.71048888  0.27508764    -0.38800
O1105       O  0.69634132  0.58030470  0.42404477    -0.39500
O1106       O  0.70423627  0.63509312  0.45345840    -0.39500
C1107       C  0.29567495  0.73137105  0.22615543    -0.11800
C1108       C  0.31221318  0.71329507  0.26377983     0.05200
C1109       C  0.32938313  0.73728531  0.29559208    -0.07100
C1110       C  0.32780579  0.77559756  0.28985668    -0.07900
C1111       C  0.30944580  0.79409571  0.25445777    -0.02400
C1112       C  0.29382634  0.77024617  0.22124870     0.04400
N1113       N  0.27827568  0.78427858  0.17954733     0.66900
H1114       H  0.28434722  0.71478381  0.19883539     0.15800
H1115       H  0.34413582  0.79029797  0.31272097     0.15500
N1116       N  0.35082627  0.72499836  0.33265138     0.74600
O1117       O  0.29531920  0.78715449  0.14109087    -0.38800
O1118       O  0.24750977  0.78095904  0.17657672    -0.38800
O1119       O  0.38134348  0.72324052  0.32332838    -0.39500
O1120       O  0.34213935  0.73163858  0.37578198    -0.39500
C1121       C  0.31724329  0.64551085  0.17471055    -0.11800
C1122       C  0.33431415  0.66044454  0.21406433     0.05200
C1123       C  0.36858126  0.66842243  0.20474951    -0.07100
C1124       C  0.38425329  0.65705964  0.16150967    -0.07900
C1125       C  0.36741797  0.63789592  0.12665876    -0.02400
C1126       C  0.33345174  0.63283833  0.13292770     0.04400
N1127       N  0.31467252  0.61544334  0.09675446     0.66900
H1128       H  0.29079154  0.64267011  0.17563656     0.15800
H1129       H  0.41038890  0.66199363  0.15606006     0.15500
N1130       N  0.38902728  0.68643012  0.23836272     0.74600
O1131       O  0.30738135  0.58189078  0.10139210    -0.38800
O1132       O  0.29838375  0.63524951  0.06869145    -0.38800
O1133       O  0.41082057  0.66743874  0.25844027    -0.39500
O1134       O  0.39535808  0.71984430  0.23111026    -0.39500
C1135       C  0.33274555  0.64834629  0.39581044    -0.11800
C1136       C  0.36356710  0.63094033  0.39091950     0.05200
C1137       C  0.37560769  0.62065781  0.34499622    -0.07100
C1138       C  0.35854402  0.63121435  0.30473958    -0.07900
C1139       C  0.33041374  0.65413753  0.30822116    -0.02400
C1140       C  0.31570672  0.65950304  0.35517763     0.04400
N1141       N  0.28368300  0.67599561  0.36249963     0.66900
H1142       H  0.32205538  0.65388604  0.43131856     0.15800
H1143       H  0.36727979  0.62002722  0.27065161     0.15500
N1144       N  0.40389658  0.59719456  0.33856944     0.74600
O1145       O  0.25926073  0.65516360  0.36823593    -0.38800
O1146       O  0.28107609  0.70873155  0.37771487    -0.38800
O1147       O  0.39989969  0.56354335  0.32884469    -0.39500
O1148       O  0.43173540  0.61141988  0.33058699    -0.39500
C1149       C  0.77579019  0.85408334  0.24573861    -0.11800
C1150       C  0.77449426  0.89259061  0.25599238     0.05200
C1151       C  0.74279220  0.90694513  0.26835751    -0.07100
C1152       C  0.71544890  0.88346729  0.27141443    -0.07900
C1153       C  0.71581804  0.84506932  0.25998254    -0.02400
C1154       C  0.74749152  0.83149839  0.24356823     0.04400
N1155       N  0.75136103  0.79727787  0.21784826     0.66900
H1156       H  0.79927400  0.84184171  0.23467615     0.15800
H1157       H  0.69335231  0.89822201  0.28052753     0.15500
N1158       N  0.73645254  0.94527553  0.27751036     0.74600
O1159       O  0.77139290  0.77328813  0.23238449    -0.38800
O1160       O  0.74301980  0.79591598  0.17455526    -0.38800
O1161       O  0.72305063  0.96364761  0.24491137    -0.39500
O1162       O  0.73116109  0.95561670  0.32042751    -0.39500
C1163       C  0.85540316  0.87300823  0.28877941    -0.11800
C1164       C  0.82695377  0.89532568  0.29688807     0.05200
C1165       C  0.81585928  0.89954554  0.34593356    -0.07100
C1166       C  0.83613260  0.88907368  0.38332755    -0.07900
C1167       C  0.86676201  0.87238143  0.37431602    -0.02400
C1168       C  0.87553442  0.86229926  0.32658596     0.04400
N1169       N  0.90518354  0.84218665  0.31536668     0.66900
H1170       H  0.86270438  0.86373247  0.25308159     0.15800
H1171       H  0.82784485  0.89468771  0.42008981     0.15500
N1172       N  0.78503682  0.91641073  0.35936256     0.74600
O1173       O  0.90401540  0.80754646  0.31170287    -0.38800
O1174       O  0.92938085  0.85893496  0.29656770    -0.38800
O1175       O  0.76173294  0.89566005  0.37255957    -0.39500
O1176       O  0.78493452  0.94915530  0.37494047    -0.39500
C1177       C  0.85971178  0.91833419  0.19842249    -0.11800
C1178       C  0.82610108  0.90874919  0.20392881     0.05200
C1179       C  0.81059804  0.89761940  0.16061506    -0.07100
C1180       C  0.82978465  0.88773596  0.11989081    -0.07900
C1181       C  0.86382241  0.89237204  0.11785603    -0.02400
C1182       C  0.87861550  0.91004463  0.15665542     0.04400
N1183       N  0.91292296  0.91837412  0.15555537     0.66900
H1184       H  0.87217273  0.93053115  0.22780790     0.15800
H1185       H  0.81754564  0.87738790  0.08850892     0.15500
N1186       N  0.77585161  0.89961494  0.15407022     0.74600
O1187       O  0.92177893  0.95063066  0.14488776    -0.38800
O1188       O  0.93238447  0.89782840  0.17794547    -0.38800
O1189       O  0.76435569  0.92873465  0.13615314    -0.39500
O1190       O  0.76130547  0.86993471  0.14527846    -0.39500
C1191       C  0.24765905  0.84095283  0.25761826    -0.11800
C1192       C  0.27770839  0.85950359  0.25536906     0.05200
C1193       C  0.27554616  0.89898879  0.25978464    -0.07100
C1194       C  0.24510112  0.91744263  0.26155559    -0.07900
C1195       C  0.21526494  0.89919791  0.25554854    -0.02400
C1196       C  0.21722157  0.85966132  0.25586026     0.04400
N1197       N  0.18877957  0.83709539  0.25411959     0.66900
H1198       H  0.24711764  0.81133291  0.25986317     0.15800
H1199       H  0.24566661  0.94678985  0.26757067     0.15500
N1200       N  0.30388755  0.92190129  0.26110004     0.74600
O1201       O  0.17890947  0.82189553  0.29257611    -0.38800
O1202       O  0.18263430  0.82162953  0.21468261    -0.38800
O1203       O  0.31048213  0.94145134  0.22473172    -0.39500
O1204       O  0.31292569  0.93318004  0.30158784    -0.39500
C1205       C  0.13397879  0.93226227  0.19761379    -0.11800
C1206       C  0.16509794  0.91545200  0.20413450     0.05200
C1207       C  0.17994814  0.89765028  0.16292850    -0.07100
C1208       C  0.16055421  0.88864158  0.12423561    -0.07900
C1209       C  0.12774161  0.90032261  0.12229414    -0.02400
C1210       C  0.11522416  0.92495214  0.15746310     0.04400
N1211       N  0.08348808  0.94200024  0.15396367     0.66900
H1212       H  0.12312471  0.94968553  0.22515656     0.15800
H1213       H  0.17176490  0.87319730  0.09442641     0.15500
N1214       N  0.21478671  0.89294229  0.15570105     0.74600
O1215       O  0.05929689  0.92939020  0.17793688    -0.38800
O1216       O  0.08153436  0.97410865  0.13702469    -0.38800
O1217       O  0.23074074  0.91913775  0.13694383    -0.39500
O1218       O  0.22628660  0.86071918  0.15023028    -0.39500
C1219       C  0.17574525  0.91318001  0.34265248    -0.11800
C1220       C  0.16155346  0.90658341  0.29748902     0.05200
C1221       C  0.13124422  0.88634918  0.29800053    -0.07100
C1222       C  0.11585956  0.87719699  0.34188858    -0.07900
C1223       C  0.12913400  0.88658245  0.38586870    -0.02400
C1224       C  0.15971707  0.90434094  0.38616612     0.04400
N1225       N  0.17498586  0.91388881  0.43007935     0.66900
H1226       H  0.19903911  0.92740064  0.34425089     0.15800
H1227       H  0.09287610  0.86224934  0.34133568     0.15500
N1228       N  0.11538270  0.87306643  0.25613176     0.74600
O1229       O  0.19764072  0.89342428  0.44530291    -0.38800
O1230       O  0.17231694  0.94652859  0.44573980    -0.38800
O1231       O  0.12134173  0.84045438  0.24237068    -0.39500
O1232       O  0.08729716  0.88619602  0.24772321    -0.39500
C1233       C  0.75813292  0.58389930  0.27582246    -0.11800
C1234       C  0.78670021  0.60036965  0.25489576     0.05200
C1235       C  0.78050225  0.63364904  0.22894505    -0.07100
C1236       C  0.75125840  0.65410162  0.23909415    -0.07900
C1237       C  0.72245403  0.63648006  0.25634430    -0.02400
C1238       C  0.72638332  0.59873824  0.26919633     0.04400
N1239       N  0.69897042  0.57411496  0.27009801     0.66900
H1240       H  0.75976686  0.55725772  0.29289219     0.15800
H1241       H  0.74917035  0.68122786  0.22359135     0.15500
N1242       N  0.79728920  0.64149529  0.18392343     0.74600
O1243       O  0.69332016  0.55524922  0.23304094    -0.38800
O1244       O  0.68396768  0.56658424  0.30908767    -0.38800
O1245       O  0.80102014  0.61613602  0.15290909    -0.39500
O1246       O  0.80075773  0.67443683  0.17041234    -0.39500
C1247       C  0.82889811  0.51522408  0.29677811    -0.11800
C1248       C  0.81652548  0.53762941  0.26001607     0.05200
C1249       C  0.79920395  0.51846067  0.22375902    -0.07100
C1250       C  0.79198721  0.97934413  0.22759997    -0.07900
C1251       C  0.80808412  0.95762406  0.26180943    -0.02400
C1252       C  0.82783885  0.97814566  0.29448290     0.04400
N1253       N  0.85364366  0.96239346  0.32225615     0.66900
H1254       H  0.84067997  0.52690026  0.32729034     0.15800
H1255       H  0.77811135  0.96586270  0.20072150     0.15500
N1256       N  0.78481207  0.53711946  0.18422458     0.74600
O1257       O  0.88154299  0.95717472  0.30209650    -0.38800
O1258       O  0.85267404  0.96751991  0.36719899    -0.38800
O1259       O  0.79930855  0.53501417  0.14354095    -0.39500
O1260       O  0.75408918  0.54245918  0.18549668    -0.39500
C1261       C  0.85862878  0.56798754  0.18410128    -0.11800
C1262       C  0.84675664  0.59339491  0.21947864     0.05200
C1263       C  0.86006292  0.62996821  0.21656176    -0.07100
C1264       C  0.87728961  0.64109295  0.17474548    -0.07900
C1265       C  0.88351635  0.61671177  0.13623050    -0.02400
C1266       C  0.87585491  0.57930434  0.14258854     0.04400
N1267       N  0.88525837  0.55214081  0.10732536     0.66900
H1268       H  0.85452101  0.53881649  0.18739005     0.15800
H1269       H  0.88514568  0.66949479  0.17214407     0.15500
N1270       N  0.85693094  0.65626814  0.25523975     0.74600
O1271       O  0.91197853  0.53464844  0.11169136    -0.38800
O1272       O  0.86381359  0.53954273  0.07994291    -0.38800
O1273       O  0.83677782  0.68274170  0.25214309    -0.39500
O1274       O  0.88105428  0.66026993  0.28226377    -0.39500
C1275       C  0.82012066  0.61194801  0.34519666    -0.11800
C1276       C  0.83829932  0.59274201  0.30861488     0.05200
C1277       C  0.87242566  0.58508024  0.31772837    -0.07100
C1278       C  0.88636498  0.59686264  0.36043229    -0.07900
C1279       C  0.86825882  0.61680969  0.39537329    -0.02400
C1280       C  0.83461177  0.62387288  0.38775873     0.04400
N1281       N  0.81434673  0.64243553  0.42324195     0.66900
H1282       H  0.79429188  0.61819355  0.34150280     0.15800
H1283       H  0.91228667  0.59118721  0.36541520     0.15500
N1284       N  0.89409642  0.56640601  0.28377861     0.74600
O1285       O  0.80816078  0.67632120  0.41825472    -0.38800
O1286       O  0.79612651  0.62362219  0.45104452    -0.38800
O1287       O  0.91423724  0.58540847  0.25919408    -0.39500
O1288       O  0.90131005  0.53305475  0.29108922    -0.39500
C1289       C  0.24882702  0.59048212  0.25588536    -0.11800
C1290       C  0.21902985  0.60946043  0.25042474     0.05200
C1291       C  0.22052481  0.64906491  0.25339842    -0.07100
C1292       C  0.25033810  0.66716385  0.26105294    -0.07900
C1293       C  0.28059595  0.64832329  0.26189861    -0.02400
C1294       C  0.27897026  0.60871670  0.26009619     0.04400
N1295       N  0.30765550  0.58570389  0.26191058     0.66900
H1296       H  0.24922067  0.56081187  0.25800589     0.15800
H1297       H  0.24912492  0.69664147  0.26598674     0.15500
N1298       N  0.19210457  0.67229572  0.24898135     0.74600
O1299       O  0.31325211  0.56923154  0.30071518    -0.38800
O1300       O  0.31932804  0.57203033  0.22314193    -0.38800
O1301       O  0.18086826  0.68860492  0.28625621    -0.39500
O1302       O  0.18721268  0.68703057  0.20880574    -0.39500
C1303       C  0.20492844  0.98338359  0.22102489    -0.11800
C1304       C  0.18506347  0.96514923  0.25623638     0.05200
C1305       C  0.16527658  0.98912577  0.28666276    -0.07100
C1306       C  0.16552879  0.52526995  0.27863246    -0.07900
C1307       C  0.18709550  0.54455223  0.24705918    -0.02400
C1308       C  0.20512459  0.52197121  0.21330150     0.04400
N1309       N  0.22270275  0.53744528  0.17302190     0.66900
H1310       H  0.21852123  0.96712393  0.19463742     0.15800
H1311       H  0.14720019  0.53981270  0.30048363     0.15500
N1312       N  0.13887962  0.97699365  0.31796236     0.74600
O1313       O  0.25377547  0.53648890  0.17218326    -0.38800
O1314       O  0.20830464  0.53950436  0.13354641    -0.38800
O1315       O  0.14134167  0.98258376  0.36252108    -0.39500
O1316       O  0.11028610  0.97539489  0.30162464    -0.39500
C1317       C  0.12179478  0.59921485  0.14371222    -0.11800
C1318       C  0.13858973  0.62195060  0.11096076     0.05200
C1319       C  0.17184838  0.62980701  0.11888766    -0.07100
C1320       C  0.18673964  0.61711195  0.16050752    -0.07900
C1321       C  0.16897001  0.59799810  0.19707835    -0.02400
C1322       C  0.13641336  0.58672475  0.18572433     0.04400
N1323       N  0.11736483  0.56260541  0.21580789     0.66900
H1324       H  0.09656265  0.59156833  0.13731830     0.15800
H1325       H  0.21261915  0.62295288  0.16368787     0.15500
N1326       N  0.19132290  0.65003632  0.08472599     0.74600
O1327       O  0.09352249  0.57591040  0.24057999    -0.38800
O1328       O  0.11651569  0.52894433  0.20427056    -0.38800
O1329       O  0.19691254  0.68362614  0.09279088    -0.39500
O1330       O  0.20972585  0.63259137  0.05497185    -0.39500
C1331       C  0.13780124  0.62594653  0.28757735    -0.11800
C1332       C  0.16579238  0.60282427  0.29120117     0.05200
C1333       C  0.17632025  0.59429616  0.33864238    -0.07100
C1334       C  0.15770416  0.60601387  0.37880842    -0.07900
C1335       C  0.12964166  0.62801034  0.37442685    -0.02400
C1336       C  0.12006001  0.63875904  0.32831308     0.04400
N1337       N  0.09251318  0.66279453  0.32183025     0.66900
H1338       H  0.13009645  0.63593074  0.25317329     0.15800
H1339       H  0.16596201  0.59847166  0.41416655     0.15500
N1340       N  0.20532251  0.57277883  0.34730888     0.74600
O1341       O  0.09741591  0.69693177  0.31754070    -0.38800
O1342       O  0.06600857  0.64948605  0.30720560    -0.38800
O1343       O  0.23102232  0.58942009  0.35882994    -0.39500
O1344       O  0.20205551  0.53982747  0.36080524    -0.39500
C1345       C  0.18698626  0.58797314  0.75005763    -0.02000
C1346       C  0.82141029  0.57821078  0.75765989    -0.02000
In1347     In  0.92148902  0.65873059  0.50896186     1.36900
C1348       C  0.91675025  0.73193411  0.50323834     0.78000
O1349       O  0.90764738  0.66184635  0.58708558    -0.60400
O1350       O  0.90514375  0.60965644  0.55312771    -0.51300
C1351       C  0.88333793  0.63132516  0.93486819     0.70700
O1352       O  0.87322913  0.65870186  0.95933564    -0.46200
C1353       C  0.98324877  0.65270235  0.00398988     0.75400
O1354       O  0.93511036  0.71497023  0.97992953    -0.58000
O1355       O  0.97002415  0.65049422  0.54483811    -0.48100
O1356       O  0.89507161  0.71299407  0.52464927    -0.54500
C1357       C  0.90071914  0.62821650  0.59132452     0.85600
O1358       O  0.91039750  0.61824170  0.94830789    -0.56400
O1359       O  0.96674740  0.65544426  0.96654155    -0.59700
In1360     In  0.08747364  0.66476181  0.50274566     1.36900
C1361       C  0.08623881  0.74081838  0.01229844     0.78000
O1362       O  0.09315447  0.67085232  0.92178937    -0.60400
O1363       O  0.11392122  0.62643251  0.96001008    -0.51300
C1364       C  0.12365940  0.63545406  0.57212431     0.70700
O1365       O  0.09838337  0.62027456  0.55605763    -0.46200
C1366       C  0.02293528  0.65149722  0.50470572     0.75400
O1367       O  0.06811536  0.71801511  0.53374353    -0.58000
O1368       O  0.03622395  0.65782396  0.96482419    -0.48100
O1369       O  0.10155453  0.72376383  0.97901720    -0.54500
C1370       C  0.11115284  0.64240845  0.92014088     0.85600
O1371       O  0.13100001  0.66534615  0.55172383    -0.56400
O1372       O  0.03946098  0.65309568  0.54222876    -0.59700
C1373       C  0.18036132  0.91678406  0.75622414    -0.02000
C1374       C  0.80721291  0.91176205  0.75185701    -0.02000
In1375     In  0.91688303  0.84564345  0.49783723     1.36900
C1376       C  0.91131100  0.77337564  0.99927683     0.78000
O1377       O  0.87433106  0.87715584  0.95770234    -0.60400
O1378       O  0.90822979  0.84450047  0.91729507    -0.51300
C1379       C  0.88471412  0.87514826  0.57487764     0.70700
O1380       O  0.87364735  0.84957504  0.54921347    -0.46200
C1381       C  0.98032202  0.86005073  0.50547433     0.75400
O1382       O  0.89317362  0.79177300  0.52012007    -0.58000
O1383       O  0.95930718  0.87827842  0.98000814    -0.48100
O1384       O  0.93225985  0.79138957  0.97532169    -0.54500
C1385       C  0.88257295  0.86405161  0.91708175     0.85600
O1386       O  0.91265532  0.88649822  0.56083821    -0.56400
O1387       O  0.96355643  0.84342391  0.53723830    -0.59700
In1388     In  0.08099527  0.85052355  0.50889475     1.36900
C1389       C  0.08764994  0.77756008  0.51286075     0.78000
O1390       O  0.12084945  0.85055301  0.56047158    -0.60400
O1391       O  0.08566104  0.89419668  0.56614999    -0.51300
C1392       C  0.10801439  0.87632838  0.93429262     0.70700
O1393       O  0.08362020  0.85500766  0.93402148    -0.46200
C1394       C  0.01146244  0.86285163  0.01420699     0.75400
O1395       O  0.09384318  0.80059825  0.97949969    -0.58000
O1396       O  0.03091267  0.84936187  0.54354226    -0.48100
O1397       O  0.06563481  0.79503091  0.53630772    -0.54500
C1398       C  0.11134201  0.87945723  0.58211661     0.85600
O1399       O  0.11500004  0.88826256  0.97535499    -0.56400
O1400       O  0.02994309  0.88056662  0.98557539    -0.59700
C1401       C  0.31604591  0.66902591  0.76568375    -0.02000
C1402       C  0.68760098  0.65463314  0.75239274    -0.02000
In1403     In  0.58082921  0.58797417  0.50790992     1.36900
C1404       C  0.58254888  0.51528191  0.50570457     0.78000
O1405       O  0.62490304  0.60608074  0.54630412    -0.60400
O1406       O  0.58208126  0.59604444  0.58913077    -0.51300
C1407       C  0.61920431  0.61885339  0.93707520     0.70700
O1408       O  0.62753811  0.58932048  0.95730866    -0.46200
C1409       C  0.51877578  0.60138628  0.00249566     0.75400
O1410       O  0.58558448  0.53393783  0.96739070    -0.58000
O1411       O  0.53376320  0.62063175  0.52756878    -0.48100
O1412       O  0.58481333  0.53337028  0.54408767    -0.54500
C1413       C  0.61221377  0.60425914  0.58805123     0.85600
O1414       O  0.59278687  0.63321859  0.95420229    -0.56400
O1415       O  0.53463693  0.58062493  0.97365790    -0.59700
In1416     In  0.41414920  0.59360275  0.50693263     1.36900
C1417       C  0.41446603  0.52126340  0.00636239     0.78000
O1418       O  0.37032226  0.60818913  0.97308530    -0.60400
O1419       O  0.41533955  0.62269283  0.93792411    -0.51300
C1420       C  0.38382398  0.62062547  0.58517320     0.70700
O1421       O  0.37723937  0.58956925  0.56763877    -0.46200
C1422       C  0.47984803  0.60020897  0.50356502     0.75400
O1423       O  0.41624422  0.53868192  0.54306986    -0.58000
O1424       O  0.46657318  0.58583338  0.97204928    -0.48100
O1425       O  0.40269907  0.54128062  0.97431309    -0.54500
C1426       C  0.38444081  0.62107813  0.93622109     0.85600
O1427       O  0.40670674  0.63769654  0.56329622    -0.56400
O1428       O  0.46174987  0.62232667  0.52784980    -0.59700
C1429       C  0.31199260  0.83738488  0.75160167    -0.02000
C1430       C  0.68074786  0.82181078  0.75215840    -0.02000
In1431     In  0.57763109  0.90232375  0.50798375     1.36900
C1432       C  0.58276005  0.97334382  0.00622248     0.78000
O1433       O  0.61420135  0.90828899  0.94339610    -0.60400
O1434       O  0.59931920  0.85394965  0.96064013    -0.51300
C1435       C  0.61140266  0.87512860  0.58075093     0.70700
O1436       O  0.62277635  0.89937282  0.55275006    -0.46200
C1437       C  0.51261140  0.89254520  0.50752249     0.75400
O1438       O  0.58184126  0.95669775  0.54557824    -0.58000
O1439       O  0.53447958  0.88145812  0.97329286    -0.48100
O1440       O  0.57989175  0.95408568  0.96885276    -0.54500
C1441       C  0.61497818  0.87473417  0.93186073     0.85600
O1442       O  0.58303881  0.86417042  0.57060254    -0.56400
O1443       O  0.52715266  0.90694348  0.54204871    -0.59700
In1444     In  0.41236232  0.90765839  0.49862587     1.36900
C1445       C  0.41026442  0.98055671  0.50393716     0.78000
O1446       O  0.36866538  0.91038129  0.54858455    -0.60400
O1447       O  0.40045082  0.86334692  0.55081263    -0.51300
C1448       C  0.38453983  0.88605472  0.92061953     0.70700
O1449       O  0.40664881  0.91029154  0.91916710    -0.46200
C1450       C  0.47972309  0.89471804  0.00483184     0.75400
O1451       O  0.40705704  0.96463768  0.96610744    -0.58000
O1452       O  0.45917533  0.90737619  0.53860204    -0.48100
O1453       O  0.41595881  0.96075293  0.53963420    -0.54500
C1454       C  0.37539652  0.88014009  0.56840260     0.85600
O1455       O  0.37930997  0.87232400  0.96162800    -0.56400
O1456       O  0.46374731  0.88485673  0.96889715    -0.59700
C1457       C  0.63820492  0.82353729  0.88164976    -0.11800
C1458       C  0.63155163  0.86116221  0.88711121     0.05200
C1459       C  0.63562044  0.88394738  0.84677664    -0.07100
C1460       C  0.64665864  0.86879954  0.80310261    -0.07900
C1461       C  0.65915266  0.83244062  0.79875093    -0.02400
C1462       C  0.64897610  0.80846749  0.83718299     0.04400
N1463       N  0.63704326  0.77221960  0.82832034     0.66900
H1464       H  0.63109872  0.80492337  0.91042412     0.15800
H1465       H  0.64386388  0.88574874  0.77172739     0.15500
N1466       N  0.62776752  0.92241663  0.84861057     0.74600
O1467       O  0.65030253  0.74536973  0.84919339    -0.38800
O1468       O  0.60663856  0.77004342  0.82093794    -0.38800
O1469       O  0.65080267  0.94516916  0.85309806    -0.39500
O1470       O  0.60060159  0.93350102  0.83296393    -0.39500
C1471       C  0.61149137  0.84378005  0.65980969    -0.11800
C1472       C  0.62922787  0.86126888  0.62282068     0.05200
C1473       C  0.66333802  0.86539956  0.62726511    -0.07100
C1474       C  0.67885141  0.85183347  0.66771649    -0.07900
C1475       C  0.66145075  0.83547462  0.70687524    -0.02400
C1476       C  0.62673918  0.83109351  0.70124270     0.04400
N1477       N  0.60617902  0.81266575  0.73571319     0.66900
H1478       H  0.58517097  0.84009012  0.65691780     0.15800
H1479       H  0.70511770  0.85445379  0.66751286     0.15500
N1480       N  0.68301926  0.88305081  0.59089928     0.74600
O1481       O  0.58793924  0.83206203  0.76357695    -0.38800
O1482       O  0.59706717  0.78042941  0.72574587    -0.37200
O1483       O  0.69166677  0.91597866  0.59739063    -0.39500
O1484       O  0.69841402  0.86354046  0.55981859    -0.39500
C1485       C  0.31877413  0.84863015  0.84023947    -0.11800
C1486       C  0.33272392  0.85342876  0.79333615     0.05200
C1487       C  0.36354104  0.87235676  0.78981125    -0.07100
C1488       C  0.37951676  0.88258796  0.83188313    -0.07900
C1489       C  0.36617580  0.87505656  0.87774197    -0.02400
C1490       C  0.33517050  0.85825767  0.88161316     0.04400
N1491       N  0.31962421  0.85067621  0.92721309     0.66900
H1492       H  0.29515097  0.83523480  0.84487993     0.15800
H1493       H  0.40283535  0.89676263  0.82845918     0.15500
N1494       N  0.37872515  0.88373436  0.74531464     0.74600
O1495       O  0.29797259  0.87279519  0.94396620    -0.38800
O1496       O  0.32070003  0.81824462  0.94330551    -0.38800
O1497       O  0.37151918  0.91512687  0.72924168    -0.39500
O1498       O  0.40641185  0.87000255  0.73315883    -0.39500
C1499       C  0.31144115  0.87024177  0.66893325    -0.11800
C1500       C  0.32706426  0.84536890  0.70032107     0.05200
C1501       C  0.35594567  0.82713835  0.68116430    -0.07100
C1502       C  0.37050030  0.83829570  0.63760073    -0.07900
C1503       C  0.35665321  0.86630098  0.61049362    -0.02400
C1504       C  0.32608034  0.88133402  0.62552599     0.04400
N1505       N  0.30910552  0.90765169  0.59707831     0.66900
H1506       H  0.28749988  0.88190648  0.67692326     0.15800
H1507       H  0.39306891  0.82470759  0.62505596     0.15500
N1508       N  0.36891508  0.79440078  0.70152884     0.74600
O1509       O  0.28891003  0.89639169  0.56683781    -0.38800
O1510       O  0.30787625  0.94093318  0.61050122    -0.38800
O1511       O  0.36239388  0.76435712  0.68101340    -0.39500
O1512       O  0.39430387  0.79619727  0.72640755    -0.39500
C1513       C  0.67285782  0.75787392  0.71194952    -0.11800
C1514       C  0.68672744  0.77855800  0.74935536     0.05200
C1515       C  0.70498990  0.75768059  0.78326660    -0.07100
C1516       C  0.70633725  0.71863478  0.78008973    -0.07900
C1517       C  0.68921208  0.69792808  0.74544213    -0.02400
C1518       C  0.67212860  0.71926377  0.71052823     0.04400
N1519       N  0.65200748  0.70390652  0.67403233     0.66900
H1520       H  0.66044612  0.77121992  0.68306171     0.15800
H1521       H  0.71995148  0.70404855  0.80705332     0.15500
N1522       N  0.72182837  0.77494222  0.82209984     0.74600
O1523       O  0.66108813  0.70810716  0.63064687    -0.38800
O1524       O  0.62162224  0.69996413  0.68292281    -0.38800
O1525       O  0.70885255  0.77438775  0.86383714    -0.39500
O1526       O  0.75269161  0.77804751  0.81871501    -0.39500
C1527       C  0.64082150  0.61432583  0.71713210    -0.11800
C1528       C  0.67004556  0.63482072  0.70995842     0.05200
C1529       C  0.68320038  0.63500019  0.66164616    -0.07100
C1530       C  0.66382156  0.62446384  0.62350428    -0.07900
C1531       C  0.63191567  0.61144251  0.63105450    -0.02400
C1532       C  0.62124336  0.60387290  0.67857273     0.04400
N1533       N  0.59156377  0.58411699  0.68842037     0.66900
H1534       H  0.63272370  0.60599739  0.75266430     0.15800
H1535       H  0.67406459  0.62717552  0.58726600     0.15500
N1536       N  0.71639818  0.64444060  0.64955295     0.74600
O1537       O  0.59320958  0.55009538  0.69734100    -0.38800
O1538       O  0.56530926  0.60166534  0.69873283    -0.38800
O1539       O  0.73576953  0.61860792  0.63666079    -0.39500
O1540       O  0.72280673  0.67670803  0.63569233    -0.39500
C1541       C  0.62005319  0.65006775  0.85789731    -0.11800
C1542       C  0.63765034  0.63375297  0.89454868     0.05200
C1543       C  0.67194418  0.62962198  0.88785114    -0.07100
C1544       C  0.68734431  0.63966506  0.84409900    -0.07900
C1545       C  0.66925034  0.65013041  0.80333685    -0.02400
C1546       C  0.63501232  0.65841494  0.81306470     0.04400
N1547       N  0.61410617  0.67418986  0.77820211     0.66900
H1548       H  0.59380748  0.65488812  0.86318294     0.15800
H1549       H  0.71390082  0.63765324  0.84230022     0.15500
N1550       N  0.69173864  0.61474396  0.92475907     0.74600
O1551       O  0.58892496  0.65660315  0.76627350    -0.38800
O1552       O  0.61315128  0.70870999  0.77510790    -0.38800
O1553       O  0.70043064  0.58128394  0.92224512    -0.39500
O1554       O  0.70744916  0.63644491  0.95100734    -0.39500
C1555       C  0.29655709  0.73058519  0.72929775    -0.11800
C1556       C  0.31389688  0.71280059  0.76631769     0.05200
C1557       C  0.33162677  0.73702958  0.79716274    -0.07100
C1558       C  0.32939920  0.77531543  0.79170315    -0.07900
C1559       C  0.31020072  0.79348372  0.75706644    -0.02400
C1560       C  0.29423136  0.76941545  0.72445094     0.04400
N1561       N  0.27766082  0.78321904  0.68348088     0.66900
H1562       H  0.28485776  0.71381533  0.70251678     0.15800
H1563       H  0.34598716  0.79031559  0.81384458     0.15500
N1564       N  0.35447256  0.72504312  0.83253495     0.74600
O1565       O  0.29387838  0.78633523  0.64432836    -0.38800
O1566       O  0.24687688  0.77936020  0.68183896    -0.38800
O1567       O  0.38474931  0.72476494  0.82127278    -0.39500
O1568       O  0.34687879  0.73097236  0.87622309    -0.39500
C1569       C  0.31716802  0.64373104  0.67843804    -0.11800
C1570       C  0.33500554  0.65915605  0.71674382     0.05200
C1571       C  0.36914995  0.66672313  0.70588335    -0.07100
C1572       C  0.38395376  0.65476205  0.66227134    -0.07900
C1573       C  0.36637914  0.63542387  0.62832690    -0.02400
C1574       C  0.33251725  0.63040495  0.63632027     0.04400
N1575       N  0.31291102  0.61245027  0.60158648     0.66900
H1576       H  0.29070914  0.64105967  0.68040824     0.15800
H1577       H  0.40998056  0.65970209  0.65562597     0.15500
N1578       N  0.39023143  0.68545586  0.73793375     0.74600
O1579       O  0.30588444  0.57892419  0.60735433    -0.38800
O1580       O  0.29583562  0.63179097  0.57398941    -0.38800
O1581       O  0.41203840  0.66679587  0.75847140    -0.39500
O1582       O  0.39697515  0.71845174  0.72846527    -0.39500
C1583       C  0.33568744  0.64931783  0.89891063    -0.11800
C1584       C  0.36631006  0.63157234  0.89367043     0.05200
C1585       C  0.37795649  0.62094969  0.84770096    -0.07100
C1586       C  0.36061091  0.63128419  0.80760059    -0.07900
C1587       C  0.33252589  0.65424840  0.81128731    -0.02400
C1588       C  0.31836324  0.66027898  0.85847023     0.04400
N1589       N  0.28660658  0.67729714  0.86625164     0.66900
H1590       H  0.32536660  0.65524073  0.93453869     0.15800
H1591       H  0.36896707  0.61972444  0.77354307     0.15500
N1592       N  0.40596681  0.59710060  0.84118995     0.74600
O1593       O  0.26203196  0.65686211  0.87325917    -0.38800
O1594       O  0.28461574  0.71025282  0.88081125    -0.38800
O1595       O  0.40154995  0.56322802  0.83341921    -0.39500
O1596       O  0.43377178  0.61083805  0.83142665    -0.39500
C1597       C  0.77480908  0.85221808  0.74132658    -0.11800
C1598       C  0.77343826  0.89085990  0.75046114     0.05200
C1599       C  0.74158796  0.90609038  0.75863953    -0.07100
C1600       C  0.71391544  0.88322619  0.75908354    -0.07900
C1601       C  0.71474119  0.84420071  0.75279318    -0.02400
C1602       C  0.74653579  0.82983616  0.73859533     0.04400
N1603       N  0.75050619  0.79576098  0.71248047     0.66900
H1604       H  0.79845346  0.83964745  0.73196000     0.15800
H1605       H  0.69168924  0.89841085  0.76038923     0.15500
N1606       N  0.73551078  0.94463756  0.76616483     0.74600
O1607       O  0.77091384  0.77193260  0.72636886    -0.38800
O1608       O  0.74211979  0.79471286  0.66919077    -0.38800
O1609       O  0.72323813  0.96273617  0.73235780    -0.39500
O1610       O  0.73000618  0.95605016  0.80857624    -0.39500
C1611       C  0.85443370  0.87186300  0.78767129    -0.11800
C1612       C  0.82454327  0.89185475  0.79435395     0.05200
C1613       C  0.81096716  0.89298676  0.84243606    -0.07100
C1614       C  0.83020141  0.88266815  0.88106645    -0.07900
C1615       C  0.86262012  0.87016049  0.87398487    -0.02400
C1616       C  0.87407604  0.86269303  0.82655226     0.04400
N1617       N  0.90617246  0.84762489  0.81664994     0.66900
H1618       H  0.86373724  0.86402191  0.75236807     0.15800
H1619       H  0.81985203  0.88590006  0.91724329     0.15500
N1620       N  0.77855910  0.90663755  0.85381280     0.74600
O1621       O  0.90919586  0.81358830  0.80786530    -0.38800
O1622       O  0.92905530  0.86899883  0.80363652    -0.38800
O1623       O  0.75600569  0.88349769  0.86144683    -0.39500
O1624       O  0.77548684  0.93817362  0.87286337    -0.39500
C1625       C  0.85971116  0.91693278  0.69757665    -0.11800
C1626       C  0.82615327  0.90682993  0.70172318     0.05200
C1627       C  0.81150157  0.89572085  0.65773844    -0.07100
C1628       C  0.83145793  0.88544617  0.61796693    -0.07900
C1629       C  0.86555499  0.88990175  0.61733276    -0.02400
C1630       C  0.87951156  0.90795555  0.65675725     0.04400
N1631       N  0.91382709  0.91601033  0.65727827     0.66900
H1632       H  0.87133303  0.92983926  0.72763654     0.15800
H1633       H  0.81974018  0.87525308  0.58607009     0.15500
N1634       N  0.77704033  0.89931709  0.64922072     0.74600
O1635       O  0.92308576  0.94830925  0.64765625    -0.38800
O1636       O  0.93266870  0.89503305  0.68011294    -0.38800
O1637       O  0.76722664  0.92851439  0.62948640    -0.39500
O1638       O  0.76120189  0.87031491  0.64148683    -0.39500
C1639       C  0.24812566  0.83875223  0.76247898    -0.11800
C1640       C  0.27770902  0.85812622  0.75874163     0.05200
C1641       C  0.27474860  0.89756280  0.76325622    -0.07100
C1642       C  0.24385881  0.91511139  0.76558247    -0.07900
C1643       C  0.21444525  0.89588797  0.75986231    -0.02400
C1644       C  0.21729693  0.85650122  0.76105421     0.04400
N1645       N  0.18936301  0.83313034  0.76048760     0.66900
H1646       H  0.24820405  0.80917576  0.76555493     0.15800
H1647       H  0.24371617  0.94447025  0.77164131     0.15500
N1648       N  0.30263620  0.92123969  0.76415754     0.74600
O1649       O  0.18036299  0.81802912  0.79944046    -0.38800
O1650       O  0.18297239  0.81721050  0.72145385    -0.38800
O1651       O  0.30876898  0.94078968  0.72763505    -0.39500
O1652       O  0.31168593  0.93284529  0.80447837    -0.39500
C1653       C  0.13297117  0.92453385  0.69950621    -0.11800
C1654       C  0.16455842  0.90933839  0.70696822     0.05200
C1655       C  0.18068470  0.89224159  0.66611774    -0.07100
C1656       C  0.16246841  0.88309317  0.62619942    -0.07900
C1657       C  0.12953215  0.89381793  0.62279018    -0.02400
C1658       C  0.11532786  0.91692258  0.65841448     0.04400
N1659       N  0.08282199  0.93191678  0.65457588     0.66900
H1660       H  0.12092899  0.94103863  0.72694529     0.15800
H1661       H  0.17476399  0.86854610  0.59648917     0.15500
N1662       N  0.21568383  0.88835187  0.66049536     0.74600
O1663       O  0.05859527  0.91476162  0.67259024    -0.38800
O1664       O  0.07933627  0.96544818  0.64386769    -0.38800
O1665       O  0.23153900  0.91491561  0.64249237    -0.39500
O1666       O  0.22780598  0.85638151  0.65540186    -0.39500
C1667       C  0.17417703  0.91002340  0.84591627    -0.11800
C1668       C  0.16025650  0.90229616  0.80088052     0.05200
C1669       C  0.13003665  0.88194436  0.80189157    -0.07100
C1670       C  0.11380029  0.87508261  0.84591366    -0.07900
C1671       C  0.12688372  0.88542579  0.88974022    -0.02400
C1672       C  0.15808890  0.90191570  0.88961479     0.04400
N1673       N  0.17408704  0.91067013  0.93321675     0.66900
H1674       H  0.19755355  0.92409647  0.84723246     0.15800
H1675       H  0.09063045  0.86050385  0.84555825     0.15500
N1676       N  0.11553786  0.86556277  0.76073379     0.74600
O1677       O  0.19427676  0.88774775  0.94983352    -0.38800
O1678       O  0.17510681  0.94385335  0.94689583    -0.38800
O1679       O  0.12156028  0.83195844  0.75223105    -0.39500
O1680       O  0.08777721  0.87775994  0.74891471    -0.39500
C1681       C  0.75777632  0.58192797  0.77186743    -0.11800
C1682       C  0.78654210  0.59789505  0.75095638     0.05200
C1683       C  0.78102502  0.63170142  0.72588271    -0.07100
C1684       C  0.75169867  0.65238280  0.73548160    -0.07900
C1685       C  0.72269378  0.63520435  0.75307545    -0.02400
C1686       C  0.72625635  0.59740840  0.76589745     0.04400
N1687       N  0.69854466  0.57324263  0.76770570     0.66900
H1688       H  0.75899867  0.55524350  0.78889202     0.15800
H1689       H  0.74985403  0.67956378  0.72005297     0.15500
N1690       N  0.79919941  0.64040953  0.68234782     0.74600
O1691       O  0.69315182  0.55318534  0.73161840    -0.38800
O1692       O  0.68379869  0.56642349  0.80713780    -0.38800
O1693       O  0.80298526  0.61594205  0.65012594    -0.39500
O1694       O  0.80385542  0.67362490  0.67091738    -0.39500
C1695       C  0.82463572  0.51272037  0.79625534    -0.11800
C1696       C  0.81534584  0.53493312  0.75735232     0.05200
C1697       C  0.79943958  0.51589676  0.71964845    -0.07100
C1698       C  0.79389521  0.97744807  0.72371119    -0.07900
C1699       C  0.80706111  0.95516044  0.75999860    -0.02400
C1700       C  0.82436938  0.97502721  0.79613450     0.04400
N1701       N  0.84663085  0.95827196  0.82867371     0.66900
H1702       H  0.83428532  0.52460421  0.82832303     0.15800
H1703       H  0.78135693  0.96455621  0.69498427     0.15500
N1704       N  0.78680852  0.53471603  0.67890161     0.74600
O1705       O  0.87537055  0.95021336  0.81332946    -0.38800
O1706       O  0.84216632  0.96396639  0.87323245    -0.38800
O1707       O  0.80176434  0.53079893  0.63875048    -0.39500
O1708       O  0.75652322  0.54268728  0.67906487    -0.39500
C1709       C  0.85977098  0.56458154  0.68283577    -0.11800
C1710       C  0.84748144  0.59007063  0.71791518     0.05200
C1711       C  0.86185099  0.62618213  0.71616886    -0.07100
C1712       C  0.88022970  0.63714936  0.67543061    -0.07900
C1713       C  0.88680141  0.61301834  0.63688777    -0.02400
C1714       C  0.87839173  0.57574026  0.64238771     0.04400
N1715       N  0.88874088  0.54857555  0.60762814     0.66900
H1716       H  0.85522269  0.53548595  0.68580311     0.15800
H1717       H  0.88884667  0.66531048  0.67376936     0.15500
N1718       N  0.85940873  0.65195880  0.75542564     0.74600
O1719       O  0.91529567  0.53108705  0.61350435    -0.38800
O1720       O  0.86818440  0.53614358  0.57871005    -0.38800
O1721       O  0.84018337  0.67931074  0.75272630    -0.39500
O1722       O  0.88365405  0.65459737  0.78252377    -0.39500
C1723       C  0.81928271  0.61290856  0.83980027    -0.11800
C1724       C  0.83688044  0.58994872  0.80651318     0.05200
C1725       C  0.87003398  0.57999770  0.81844491    -0.07100
C1726       C  0.88344334  0.59253250  0.86125509    -0.07900
C1727       C  0.86604187  0.61637723  0.89266675    -0.02400
C1728       C  0.83357518  0.62655425  0.88149042     0.04400
N1729       N  0.81466034  0.65143722  0.91140313     0.66900
H1730       H  0.79436827  0.62182574  0.83349457     0.15800
H1731       H  0.90859840  0.58473854  0.86870951     0.15500
N1732       N  0.89139582  0.55862670  0.78690516     0.74600
O1733       O  0.81346481  0.68505768  0.90011989    -0.38800
O1734       O  0.79269278  0.63870150  0.93953551    -0.38800
O1735       O  0.91236330  0.57538771  0.76094730    -0.39500
O1736       O  0.89753871  0.52562251  0.79780342    -0.39500
C1737       C  0.25016187  0.59017152  0.76175452    -0.11800
C1738       C  0.22043943  0.60914649  0.75558444     0.05200
C1739       C  0.22194597  0.64875823  0.75859404    -0.07100
C1740       C  0.25179363  0.66684808  0.76606882    -0.07900
C1741       C  0.28204734  0.64797254  0.76665655    -0.02400
C1742       C  0.28033834  0.60837084  0.76565570     0.04400
N1743       N  0.30900896  0.58534625  0.76760782     0.66900
H1744       H  0.25048660  0.56053892  0.76446906     0.15800
H1745       H  0.25062321  0.69633504  0.77091205     0.15500
N1746       N  0.19350677  0.67199353  0.75445076     0.74600
O1747       O  0.31479513  0.56928947  0.80663815    -0.38800
O1748       O  0.32061061  0.57137742  0.72897461    -0.38800
O1749       O  0.18218193  0.68791871  0.79195551    -0.39500
O1750       O  0.18858459  0.68703877  0.71448017    -0.39500
C1751       C  0.20267277  0.97902873  0.72385709    -0.11800
C1752       C  0.18235226  0.96063122  0.75830006     0.05200
C1753       C  0.16096741  0.98434376  0.78678618    -0.07100
C1754       C  0.16656411  0.52504419  0.78293024    -0.07900
C1755       C  0.18864327  0.54414594  0.75190230    -0.02400
C1756       C  0.20707426  0.52134531  0.71878150     0.04400
N1757       N  0.22598738  0.53664527  0.67965164     0.66900
H1758       H  0.21729423  0.96292905  0.69850652     0.15800
H1759       H  0.14824988  0.53978518  0.80455680     0.15500
N1760       N  0.13414427  0.97175872  0.81699344     0.74600
O1761       O  0.25699316  0.53438992  0.68025463    -0.38800
O1762       O  0.21259389  0.53969763  0.63951152    -0.38800
O1763       O  0.13584553  0.97710079  0.86171164    -0.39500
O1764       O  0.10582673  0.97037311  0.79966697    -0.39500
C1765       C  0.12510995  0.59681112  0.64524975    -0.11800
C1766       C  0.14174513  0.62029702  0.61333889     0.05200
C1767       C  0.17449566  0.62957427  0.62276441    -0.07100
C1768       C  0.18903324  0.61719546  0.66485631    -0.07900
C1769       C  0.17121470  0.59724490  0.70061285    -0.02400
C1770       C  0.13920450  0.58494505  0.68791870     0.04400
N1771       N  0.12015841  0.56033777  0.71725422     0.66900
H1772       H  0.10028860  0.58820387  0.63778457     0.15800
H1773       H  0.21461423  0.62402790  0.66905816     0.15500
N1774       N  0.19376841  0.65110225  0.58977287     0.74600
O1775       O  0.09610299  0.57318104  0.74199301    -0.38800
O1776       O  0.11958132  0.52681609  0.70496749    -0.38800
O1777       O  0.19793078  0.68484666  0.59871854    -0.39500
O1778       O  0.21318497  0.63489950  0.56017418    -0.39500
C1779       C  0.13831051  0.62561945  0.78943752    -0.11800
C1780       C  0.16639769  0.60283883  0.79450346     0.05200
C1781       C  0.17631199  0.59527204  0.84247534    -0.07100
C1782       C  0.15721389  0.60770560  0.88184845    -0.07900
C1783       C  0.12907101  0.62941207  0.87613904    -0.02400
C1784       C  0.12004105  0.63915012  0.82933797     0.04400
N1785       N  0.09278288  0.66325704  0.82127955     0.66900
H1786       H  0.13098004  0.63488359  0.75450918     0.15800
H1787       H  0.16514224  0.60088349  0.91761726     0.15500
N1788       N  0.20536605  0.57428485  0.85248117     0.74600
O1789       O  0.09810694  0.69710623  0.81475869    -0.38800
O1790       O  0.06612021  0.64977160  0.80753074    -0.38800
O1791       O  0.23070603  0.59142123  0.86449247    -0.39500
O1792       O  0.20227139  0.54136808  0.86620312    -0.39500
loop_ 
_geom_bond_atom_site_label_1 
_geom_bond_atom_site_label_2 
_geom_bond_distance 
_geom_bond_site_symmetry_2 
_ccdc_geom_bond_type 
C1          C394   1.579       .  S
C1          C411   1.591       .  S
C1          C425   1.572       .  S
C1          C436   1.561       .  S
C2          C338   1.599       .  S
C2          C352   1.595       .  S
C2          C366   1.570       .  S
C2          C380   1.579       .  S
In3           O5   2.223       .  S
In3           O6   2.273       .  S
In3          O11   2.254       .  S
In3          O12   2.243       .  S
In3         O462   2.235   1_554  S
In3         O456   2.277   1_554  S
In3         O458   2.250   1_554  S
In3         O463   2.268   1_554  S
C4           O12   1.259   1_556  A
C4          O458   1.260       .  A
C4          C480   1.461       .  S
O5           C13   1.257       .  A
O6           C13   1.261       .  A
C7           O14   1.261       .  A
C7            O8   1.261       .  A
C7          C383   1.496       .  S
O8         In451   2.295       .  S
C9           O15   1.261       .  A
C9          O459   1.255       .  A
C9          C470   1.473   1_655  S
O10        In451   2.251       .  S
O10         C452   1.261       .  A
O11         C457   1.257       .  A
C13         C369   1.483       .  S
O14        In451   2.243       .  S
O15        In451   2.291       .  S
In16         O27   2.267       .  S
In16         O21   2.247       .  S
In16         O23   2.251       .  S
In16         O28   2.256       .  S
In16        O466   2.252   1_554  S
In16        O467   2.228   1_554  S
In16        O472   2.273   1_554  S
In16        O473   2.237   1_554  S
C17          O25   1.258       .  A
C17         O471   1.258       .  A
C17         C493   1.455       .  S
O18        In464   2.217       .  S
O18          C26   1.259       .  A
O19        In464   2.273       .  S
O19          C26   1.260       .  A
C20          O27   1.263       .  A
C20          O21   1.264       .  A
C20         C422   1.490       .  S
C22          O28   1.256       .  A
C22         O472   1.257   1_554  A
C22         C457   1.469   1_455  S
O23         C465   1.258       .  A
O24        In464   2.284       .  S
O24         C470   1.263       .  A
O25        In464   2.239       .  S
C26         C439   1.478       .  S
C29         C299   1.578       .  S
C29         C310   1.552       .  S
C29         C324   1.561       .  S
C29         C408   1.595       .  S
C30         C254   1.584       .  S
C30         C268   1.568       .  S
C30         C282   1.582       .  S
C30         C355   1.587       .  S
In31         O42   2.295   1_556  S
In31         O36   2.215   1_556  S
In31         O38   2.249   1_556  S
In31         O43   2.218   1_556  S
In31        O481   2.246       .  S
In31        O482   2.281       .  S
In31        O487   2.264       .  S
In31        O488   2.252       .  S
C32          O40   1.256       .  A
C32         O486   1.258       .  A
C32         C452   1.462       .  S
O33        In479   2.236       .  S
O33          C41   1.258       .  A
O34        In479   2.285       .  S
O34          C41   1.258       .  A
C35          O42   1.265       .  A
C35          O36   1.260       .  A
C35         C285   1.481       .  S
C37          O43   1.259       .  A
C37         O487   1.264   1_554  A
C37         C498   1.462   1_655  S
O38         C480   1.257   1_554  A
O39        In479   2.270       .  S
O39         C485   1.264       .  A
O40        In479   2.252       .  S
C41         C271   1.488       .  S
In44         O46   2.182       .  S
In44         O47   2.252       .  S
In44         O52   2.225       .  S
In44         O53   2.249       .  S
In44        O503   2.217   1_554  S
In44        O497   2.264   1_554  S
In44        O499   2.238   1_554  S
In44        O504   2.272   1_554  S
C45          O53   1.258       .  A
C45         O499   1.257   1_554  A
C45         C465   1.457       .  S
O46          C54   1.260       .  A
O47          C54   1.265       .  A
C48          O55   1.260       .  A
C48          O49   1.260       .  A
C48         C327   1.477       .  S
O49        In492   2.218       .  S
C50          O56   1.261       .  A
C50         O500   1.255       .  A
C50         C485   1.463   1_455  S
O51        In492   2.239       .  S
O51         C493   1.257       .  A
O52         C498   1.255       .  A
C54         C313   1.465       .  S
O55        In492   2.262       .  S
O56        In492   2.276       .  S
C57         C212   1.592       .  S
C57         C226   1.581       .  S
C57         C243   1.548       .  S
C57         C397   1.586       .  S
C58         C173   1.583       .  S
C58         C184   1.569       .  S
C58         C201   1.591       .  S
C58         C341   1.586       .  S
In59         O61   2.218       .  S
In59         O62   2.270       .  S
In59         O67   2.272       .  S
In59         O68   2.240       .  S
In59        O518   2.275   1_554  S
In59        O512   2.253   1_554  S
In59        O514   2.244   1_554  S
In59        O519   2.225   1_554  S
C60          O68   1.255       .  A
C60         O514   1.258   1_554  A
C60        C1432   1.454   1_545  S
O61          C69   1.259       .  A
O62          C69   1.261       .  A
C63          O70   1.266       .  A
C63          O64   1.258       .  A
C63         C198   1.485       .  S
O64        In507   2.248       .  S
C65          O71   1.259       .  A
C65         O515   1.265       .  A
C65         C526   1.471       .  S
O66        In507   2.236       .  S
O66         C508   1.258       .  A
O67         C513   1.264   1_554  A
C69         C187   1.478       .  S
O70        In507   2.277       .  S
O71        In507   2.230       .  S
In72         O83   2.250       .  S
In72         O77   2.222       .  S
In72         O79   2.241       .  S
In72         O84   2.281       .  S
In72        O522   2.239   1_554  S
In72        O523   2.241   1_554  S
In72        O528   2.230   1_554  S
In72        O529   2.222   1_554  S
C73          O81   1.257       .  A
C73         O527   1.262       .  A
C73        C1445   1.453   1_545  S
O74        In520   2.238       .  S
O74          C82   1.254       .  A
O75        In520   2.238       .  S
O75          C82   1.259       .  A
C76          O83   1.265       .  A
C76          O77   1.259       .  A
C76         C229   1.469       .  S
C78          O84   1.263   1_556  A
C78         O528   1.256       .  A
C78         C513   1.468       .  S
O79         C521   1.262       .  A
O80        In520   2.237       .  S
O80         C526   1.258       .  A
O81        In520   2.225       .  S
C82         C240   1.460       .  S
C85         C142   1.567       .  S
C85         C156   1.563       .  S
C85         C215   1.607       .  S
C85         C296   1.583       .  S
C86         C117   1.583       .  S
C86         C131   1.585       .  S
C86         C170   1.587       .  S
C86         C257   1.613       .  S
In87         O98   2.242       .  S
In87         O92   2.255       .  S
In87         O94   2.233       .  S
In87         O99   2.256       .  S
In87        O537   2.223   1_554  S
In87        O538   2.240   1_554  S
In87        O543   2.276   1_554  S
In87        O544   2.230   1_554  S
C88          O96   1.260       .  A
C88         O542   1.260       .  A
C88        C1404   1.450       .  S
O89        In535   2.231       .  S
O89          C97   1.257       .  A
O90        In535   2.237       .  S
O90          C97   1.264       .  A
C91          O98   1.263       .  A
C91          O92   1.259       .  A
C91         C128   1.482       .  S
C93          O99   1.258   1_556  A
C93         O543   1.258       .  A
C93         C554   1.471       .  S
O94         C536   1.259       .  A
O95        In535   2.274       .  S
O95         C541   1.260       .  A
O96        In535   2.227       .  S
C97         C114   1.472       .  S
In100       O102   2.226   1_556  S
In100       O103   2.225   1_556  S
In100       O108   2.249   1_556  S
In100       O109   2.245   1_556  S
In100       O559   2.252       .  S
In100       O553   2.246       .  S
In100       O555   2.242       .  S
In100       O560   2.277       .  S
C101        O109   1.254       .  A
C101        O555   1.257   1_554  A
C101       C1417   1.454       .  S
O102        C110   1.261       .  A
O103        C110   1.265       .  A
C104        O111   1.259       .  A
C104        O105   1.262       .  A
C104        C145   1.481       .  S
O105       In548   2.246       .  S
C106        O112   1.261       .  A
C106        O556   1.254       .  A
C106        C541   1.468       .  S
O107       In548   2.236       .  S
O107        C549   1.258       .  A
O108        C554   1.255   1_554  A
C110        C159   1.470       .  S
O111       In548   2.246       .  S
O112       In548   2.281       .  S
C113        C114   1.394       .  A
C113        C118   1.402       .  A
C113        H120   1.084       .  S
C114        C115   1.403       .  A
C115        C116   1.391       .  A
C115        N122   1.429       .  S
C116        C117   1.414       .  A
C116        H121   1.082       .  S
C117        C118   1.435       .  A
C118        N119   1.428       .  S
N119        O123   1.262       .  A
N119        O124   1.261       .  A
N122        O126   1.262       .  A
N122        O125   1.262       .  A
C127        C128   1.394       .  A
C127        C132   1.399       .  A
C127        H134   1.084       .  S
C128        C129   1.405       .  A
C129        C130   1.400       .  A
C129        N136   1.428       .  S
C130        C131   1.417       .  A
C130        H135   1.071       .  S
C131        C132   1.437       .  A
C132        N133   1.426       .  S
N133        O137   1.263       .  A
N133        O138   1.262       .  A
N136        O140   1.262       .  A
N136        O139   1.262       .  A
C141        C142   1.418       .  A
C141        C146   1.391       .  A
C141        H148   1.084       .  S
C142        C143   1.435       .  A
C143        C144   1.404       .  A
C143        N150   1.432       .  S
C144        C145   1.401       .  A
C144        H149   1.084       .  S
C145        C146   1.407       .  A
C146        N147   1.429       .  S
N147        O151   1.262       .  A
N147        O152   1.262       .  A
N150        O154   1.261       .  A
N150        O153   1.261       .  A
C155        C156   1.418       .  A
C155        C160   1.392       .  A
C155        H162   1.075       .  S
C156        C157   1.427       .  A
C157        C158   1.398       .  A
C157        N164   1.422       .  S
C158        C159   1.394       .  A
C158        H163   1.084       .  S
C159        C160   1.403       .  A
C160        N161   1.429       .  S
N161        O165   1.262       .  A
N161        O166   1.262       .  A
N164        O168   1.262       .  A
N164        O167   1.261       .  A
C169        C170   1.414       .  A
C169        C174   1.400       .  A
C169        H176   1.075       .  S
C170        C171   1.431       .  A
C171        C172   1.419       .  A
C171        N178   1.438       .  S
C172        C173   1.421       .  A
C172        H177   1.082       .  S
C173        C174   1.436       .  A
C174        N175   1.438       .  S
N175        O179   1.262       .  A
N175        O180   1.260       .  A
N178        O182   1.261       .  A
N178        O181   1.261       .  A
C183        C184   1.416       .  A
C183        C188   1.406       .  A
C183        H190   1.078       .  S
C184        C185   1.434       .  A
C185        C186   1.394       .  A
C185        N192   1.426       .  S
C186        C187   1.390       .  A
C186        H191   1.085       .  S
C187        C188   1.406       .  A
C188        N189   1.429       .  S
N189        O193   1.262       .  A
N189        O194   1.262       .  A
N192        O196   1.261       .  A
N192        O195   1.261       .  A
C197        C198   1.393       .  A
C197        C202   1.407       .  A
C197        H204   1.084       .  S
C198        C199   1.405       .  A
C199        C200   1.402       .  A
C199        N206   1.428       .  S
C200        C201   1.421       .  A
C200        H205   1.080       .  S
C201        C202   1.438       .  A
C202        N203   1.426       .  S
N203        O207   1.262       .  A
N203        O208   1.256       .  A
N206        O210   1.262       .  A
N206        O209   1.262       .  A
C211        C212   1.420       .  A
C211        C216   1.420       .  A
C211        H218   1.083       .  S
C212        C213   1.439       .  A
C213        C214   1.403       .  A
C213        N220   1.440       .  S
C214        C215   1.420       .  A
C214        H219   1.076       .  S
C215        C216   1.430       .  A
C216        N217   1.431       .  S
N217        O221   1.262       .  A
N217        O222   1.262       .  A
N220        O224   1.262       .  A
N220        O223   1.260       .  A
C225        C226   1.421       .  A
C225        C230   1.391       .  A
C225        H232   1.080       .  S
C226        C227   1.441       .  A
C227        C228   1.404       .  A
C227        N234   1.429       .  S
C228        C229   1.392       .  A
C228        H233   1.084       .  S
C229        C230   1.399       .  A
C230        N231   1.429       .  S
N231        O235   1.262       .  A
N231        O236   1.262       .  A
N234        O238   1.258       .  A
N234        O237   1.262       .  A
C239        C240   1.398       .  A
C239        C244   1.403       .  A
C239        H246   1.084       .  S
C240        C241   1.399       .  A
C241        C242   1.388       .  A
C241        N248   1.430       .  S
C242        C243   1.407       .  A
C242        H247   1.078       .  S
C243        C244   1.433       .  A
C244        N245   1.436       .  S
N245        O249   1.260       .  A
N245        O250   1.261       .  A
N248        O252   1.261       .  A
N248        O251   1.262       .  A
C253        C254   1.424       .  A
C253        C258   1.420       .  A
C253        H260   1.084       .  S
C254        C255   1.417       .  A
C255        C256   1.404       .  A
C255        N262   1.431       .  S
C256        C257   1.424       .  A
C256        H261   1.074       .  S
C257        C258   1.434       .  A
C258        N259   1.435       .  S
N259        O263   1.262       .  A
N259        O264   1.262       .  A
N262        O266   1.261       .  A
N262        O265   1.262       .  A
C267        C268   1.416       .  A
C267        C272   1.407       .  A
C267        H274   1.079       .  S
C268        C269   1.431       .  A
C269        C270   1.396       .  A
C269        N276   1.427       .  S
C270        C271   1.396       .  A
C270        H275   1.084       .  S
C271        C272   1.412       .  A
C272        N273   1.428       .  S
N273        O277   1.262       .  A
N273        O278   1.262       .  A
N276        O280   1.262       .  A
N276        O279   1.262       .  A
C281        C282   1.418       .  A
C281        C286   1.405       .  A
C281        H288   1.073       .  S
C282        C283   1.434       .  A
C283        C284   1.398       .  A
C283        N290   1.430       .  S
C284        C285   1.393       .  A
C284        H289   1.085       .  S
C285        C286   1.406       .  A
C286        N287   1.428       .  S
N287        O291   1.262       .  A
N287        O292   1.262       .  A
N290        O294   1.260       .  A
N290        O293   1.262       .  A
C295        C296   1.399       .  A
C295        C300   1.405       .  A
C295        H302   1.077       .  S
C296        C297   1.439       .  A
C297        C298   1.400       .  A
C297        N304   1.427       .  S
C298        C299   1.400       .  A
C298        H303   1.077       .  S
C299        C300   1.435       .  A
C300        N301   1.424       .  S
N301        O305   1.263       .  A
N301        O306   1.262       .  A
N304        O308   1.262       .  A
N304        O307   1.262       .  A
C309        C310   1.414       .  A
C309        C314   1.396       .  A
C309        H316   1.073       .  S
C310        C311   1.428       .  A
C311        C312   1.392       .  A
C311        N318   1.432       .  S
C312        C313   1.397       .  A
C312        H317   1.085       .  S
C313        C314   1.402       .  A
C314        N315   1.430       .  S
N315        O319   1.262       .  A
N315        O320   1.262       .  A
N318        O322   1.261       .  A
N318        O321   1.262       .  A
C323        C324   1.418       .  A
C323        C328   1.396       .  A
C323        H330   1.084       .  S
C324        C325   1.437       .  A
C325        C326   1.397       .  A
C325        N332   1.432       .  S
C326        C327   1.396       .  A
C326        H331   1.084       .  S
C327        C328   1.406       .  A
C328        N329   1.429       .  S
N329        O333   1.262       .  A
N329        O334   1.262       .  A
N332        O336   1.261       .  A
N332        O335   1.261       .  A
C337        C338   1.420       .  A
C337        C342   1.413       .  A
C337        H344   1.082       .  S
C338        C339   1.434       .  A
C339        C340   1.416       .  A
C339        N346   1.438       .  S
C340        C341   1.411       .  A
C340        H345   1.080       .  S
C341        C342   1.427       .  A
C342        N343   1.434       .  S
N343        O347   1.262       .  A
N343        O348   1.261       .  A
N346        O350   1.263       .  A
N346        O349   1.263       .  A
C351        C352   1.412       .  A
C351       C1252   1.401   1_545  A
C351        H358   1.074       .  S
C352        C353   1.430       .  A
C353       C1250   1.412   1_545  A
C353        N360   1.432       .  S
C354        C355   1.410       .  A
C354       C1249   1.409       .  A
C354        H359   1.070       .  S
C355        C356   1.440       .  A
C356       C1247   1.401       .  A
C356        N357   1.436       .  S
N357        O361   1.262       .  A
N357        O362   1.262       .  A
N360        O364   1.260       .  A
N360        O363   1.262       .  A
C365        C366   1.417       .  A
C365        C370   1.400       .  A
C365        H372   1.076       .  S
C366        C367   1.440       .  A
C367        C368   1.399       .  A
C367        N374   1.436       .  S
C368        C369   1.400       .  A
C368        H373   1.084       .  S
C369        C370   1.407       .  A
C370        N371   1.429       .  S
N371        O375   1.262       .  A
N371        O376   1.262       .  A
N374        O378   1.262       .  A
N374        O377   1.261       .  A
C379        C380   1.416       .  A
C379        C384   1.410       .  A
C379        H386   1.080       .  S
C380        C381   1.442       .  A
C381        C382   1.398       .  A
C381        N388   1.435       .  S
C382        C383   1.397       .  A
C382        H387   1.084       .  S
C383        C384   1.414       .  A
C384        N385   1.428       .  S
N385        O389   1.262       .  A
N385        O390   1.262       .  A
N388        O392   1.261       .  A
N388        O391   1.263       .  A
C393        C394   1.399       .  A
C393        C398   1.406       .  A
C393        H400   1.078       .  S
C394        C395   1.441       .  A
C395        C396   1.405       .  A
C395        N402   1.431       .  S
C396        C397   1.401       .  A
C396        H401   1.078       .  S
C397        C398   1.441       .  A
C398        N399   1.430       .  S
N399        O403   1.262       .  A
N399        O404   1.262       .  A
N402        O406   1.262       .  A
N402        O405   1.262       .  A
C407        C408   1.420       .  A
C407       C1308   1.416       .  A
C407        H414   1.076       .  S
C408        C409   1.435       .  A
C409       C1306   1.397       .  A
C409        N416   1.435       .  S
C410        C411   1.416       .  A
C410       C1305   1.397   1_545  A
C410        H415   1.078       .  S
C411        C412   1.424       .  A
C412       C1303   1.416   1_545  A
C412        N413   1.431       .  S
N413        O417   1.262       .  A
N413        O418   1.262       .  A
N416        O420   1.262       .  A
N416        O419   1.262       .  A
C421        C422   1.399       .  A
C421        C426   1.402       .  A
C421        H428   1.084       .  S
C422        C423   1.410       .  A
C423        C424   1.403       .  A
C423        N430   1.429       .  S
C424        C425   1.418       .  A
C424        H429   1.080       .  S
C425        C426   1.431       .  A
C426        N427   1.430       .  S
N427        O431   1.262       .  A
N427        O432   1.262       .  A
N430        O434   1.262       .  A
N430        O433   1.262       .  A
C435        C436   1.414       .  A
C435        C440   1.401       .  A
C435        H442   1.079       .  S
C436        C437   1.433       .  A
C437        C438   1.391       .  A
C437        N444   1.435       .  S
C438        C439   1.396       .  A
C438        H443   1.084       .  S
C439        C440   1.409       .  A
C440        N441   1.428       .  S
N441        O445   1.262       .  A
N441        O446   1.262       .  A
N444        O448   1.262       .  A
N444        O447   1.260       .  A
C449        C842   1.580       .  S
C449        C859   1.588       .  S
C449        C873   1.571       .  S
C449        C884   1.560       .  S
C450        C786   1.592       .  S
C450        C800   1.591       .  S
C450        C814   1.569       .  S
C450        C828   1.573       .  S
In451       O453   2.223       .  S
In451       O454   2.283       .  S
In451       O459   2.245       .  S
In451       O460   2.242       .  S
C452        O460   1.259       .  A
O453        C461   1.256       .  A
O454        C461   1.262       .  A
C455        O462   1.261       .  A
C455        O456   1.261       .  A
C455        C831   1.488       .  S
C457        O463   1.260   1_554  A
C461        C817   1.484       .  S
In464       O475   2.252       .  S
In464       O469   2.267       .  S
In464       O471   2.242       .  S
In464       O476   2.237       .  S
C465        O473   1.256   1_554  A
O466        C474   1.259       .  A
O467        C474   1.263       .  A
C468        O475   1.258       .  A
C468        O469   1.265       .  A
C468        C870   1.487       .  S
C470        O476   1.258       .  A
C474        C887   1.476       .  S
C477        C747   1.581       .  S
C477        C758   1.557       .  S
C477        C772   1.563       .  S
C477        C856   1.597       .  S
C478        C702   1.573       .  S
C478        C716   1.573       .  S
C478        C730   1.581       .  S
C478        C803   1.589       .  S
In479       O490   2.295       .  S
In479       O484   2.218       .  S
In479       O486   2.253       .  S
In479       O491   2.215       .  S
C480        O488   1.257       .  A
O481        C489   1.258       .  A
O482        C489   1.256       .  A
C483        O490   1.265       .  A
C483        O484   1.262       .  A
C483        C733   1.487       .  S
C485        O491   1.258       .  A
C489        C719   1.488       .  S
In492       O494   2.192       .  S
In492       O495   2.258       .  S
In492       O500   2.220       .  S
In492       O501   2.246       .  S
C493        O501   1.258       .  A
O494        C502   1.260       .  A
O495        C502   1.265       .  A
C496        O503   1.261       .  A
C496        O497   1.259       .  A
C496        C775   1.478       .  S
C498        O504   1.261   1_554  A
C502        C761   1.472       .  S
C505        C660   1.596       .  S
C505        C674   1.581       .  S
C505        C691   1.551       .  S
C505        C845   1.586       .  S
C506        C621   1.579       .  S
C506        C632   1.569       .  S
C506        C649   1.590       .  S
C506        C789   1.579       .  S
In507       O509   2.219       .  S
In507       O510   2.268       .  S
In507       O515   2.276       .  S
In507       O516   2.238       .  S
C508        O516   1.255       .  A
C508        C984   1.451   1_545  S
O509        C517   1.258       .  A
O510        C517   1.262       .  A
C511        O518   1.265       .  A
C511        O512   1.259       .  A
C511        C646   1.487       .  S
C513        O519   1.259       .  A
C517        C635   1.476       .  S
In520       O531   2.247       .  S
In520       O525   2.229       .  S
In520       O527   2.242       .  S
In520       O532   2.280       .  S
C521        O529   1.257   1_554  A
C521        C997   1.452   1_545  S
O522        C530   1.254       .  A
O523        C530   1.258       .  A
C524        O531   1.264       .  A
C524        O525   1.259       .  A
C524        C677   1.471       .  S
C526        O532   1.263       .  A
C530        C688   1.465       .  S
C533        C590   1.569       .  S
C533        C604   1.565       .  S
C533        C663   1.609       .  S
C533        C744   1.587       .  S
C534        C565   1.583       .  S
C534        C579   1.580       .  S
C534        C618   1.583       .  S
C534        C705   1.607       .  S
In535       O546   2.246       .  S
In535       O540   2.244       .  S
In535       O542   2.227       .  S
In535       O547   2.241       .  S
C536        O544   1.257   1_554  A
C536        C956   1.451       .  S
O537        C545   1.257       .  A
O538        C545   1.265       .  A
C539        O546   1.262       .  A
C539        O540   1.257       .  A
C539        C576   1.481       .  S
C541        O547   1.257       .  A
C545        C562   1.473       .  S
In548       O550   2.216       .  S
In548       O551   2.231       .  S
In548       O556   2.237       .  S
In548       O557   2.237       .  S
C549        O557   1.256       .  A
C549        C969   1.451       .  S
O550        C558   1.260       .  A
O551        C558   1.266       .  A
C552        O559   1.260       .  A
C552        O553   1.263       .  A
C552        C593   1.482       .  S
C554        O560   1.260       .  A
C558        C607   1.472       .  S
C561        C562   1.396       .  A
C561        C566   1.404       .  A
C561        H568   1.084       .  S
C562        C563   1.403       .  A
C563        C564   1.389       .  A
C563        N570   1.429       .  S
C564        C565   1.412       .  A
C564        H569   1.075       .  S
C565        C566   1.434       .  A
C566        N567   1.429       .  S
N567        O571   1.262       .  A
N567        O572   1.261       .  A
N570        O574   1.262       .  A
N570        O573   1.262       .  A
C575        C576   1.396       .  A
C575        C580   1.400       .  A
C575        H582   1.084       .  S
C576        C577   1.406       .  A
C577        C578   1.395       .  A
C577        N584   1.428       .  S
C578        C579   1.416       .  A
C578        H583   1.073       .  S
C579        C580   1.434       .  A
C580        N581   1.426       .  S
N581        O585   1.263       .  A
N581        O586   1.262       .  A
N584        O588   1.262       .  A
N584        O587   1.262       .  A
C589        C590   1.419       .  A
C589        C594   1.393       .  A
C589        H596   1.084       .  S
C590        C591   1.436       .  A
C591        C592   1.405       .  A
C591        N598   1.431       .  S
C592        C593   1.400       .  A
C592        H597   1.084       .  S
C593        C594   1.406       .  A
C594        N595   1.429       .  S
N595        O599   1.262       .  A
N595        O600   1.262       .  A
N598        O602   1.262       .  A
N598        O601   1.261       .  A
C603        C604   1.418       .  A
C603        C608   1.393       .  A
C603        H610   1.073       .  S
C604        C605   1.427       .  A
C605        C606   1.397       .  A
C605        N612   1.420       .  S
C606        C607   1.392       .  A
C606        H611   1.084       .  S
C607        C608   1.404       .  A
C608        N609   1.429       .  S
N609        O613   1.262       .  A
N609        O614   1.262       .  A
N612        O616   1.261       .  A
N612        O615   1.262       .  A
C617        C618   1.414       .  A
C617        C622   1.398       .  A
C617        H624   1.076       .  S
C618        C619   1.431       .  A
C619        C620   1.417       .  A
C619        N626   1.439       .  S
C620        C621   1.421       .  A
C620        H625   1.083       .  S
C621        C622   1.435       .  A
C622        N623   1.437       .  S
N623        O627   1.262       .  A
N623        O628   1.261       .  A
N626        O630   1.261       .  A
N626        O629   1.261       .  A
C631        C632   1.415       .  A
C631        C636   1.404       .  A
C631        H638   1.078       .  S
C632        C633   1.433       .  A
C633        C634   1.395       .  A
C633        N640   1.426       .  S
C634        C635   1.392       .  A
C634        H639   1.084       .  S
C635        C636   1.406       .  A
C636        N637   1.428       .  S
N637        O641   1.262       .  A
N637        O642   1.261       .  A
N640        O644   1.262       .  A
N640        O643   1.261       .  A
C645        C646   1.395       .  A
C645        C650   1.407       .  A
C645        H652   1.084       .  S
C646        C647   1.406       .  A
C647        C648   1.401       .  A
C647        N654   1.428       .  S
C648        C649   1.421       .  A
C648        H653   1.080       .  S
C649        C650   1.437       .  A
C650        N651   1.426       .  S
N651        O655   1.263       .  A
N651        O656   1.256       .  A
N654        O658   1.262       .  A
N654        O657   1.262       .  A
C659        C660   1.422       .  A
C659        C664   1.422       .  A
C659        H666   1.083       .  S
C660        C661   1.439       .  A
C661        C662   1.402       .  A
C661        N668   1.439       .  S
C662        C663   1.420       .  A
C662        H667   1.076       .  S
C663        C664   1.431       .  A
C664        N665   1.432       .  S
N665        O669   1.262       .  A
N665        O670   1.262       .  A
N668        O672   1.262       .  A
N668        O671   1.260       .  A
C673        C674   1.422       .  A
C673        C678   1.392       .  A
C673        H680   1.079       .  S
C674        C675   1.440       .  A
C675        C676   1.402       .  A
C675        N682   1.429       .  S
C676        C677   1.391       .  A
C676        H681   1.085       .  S
C677        C678   1.401       .  A
C678        N679   1.429       .  S
N679        O683   1.262       .  A
N679        O684   1.262       .  A
N682        O686   1.257       .  A
N682        O685   1.262       .  A
C687        C688   1.400       .  A
C687        C692   1.403       .  A
C687        H694   1.084       .  S
C688        C689   1.401       .  A
C689        C690   1.389       .  A
C689        N696   1.430       .  S
C690        C691   1.408       .  A
C690        H695   1.078       .  S
C691        C692   1.431       .  A
C692        N693   1.434       .  S
N693        O697   1.260       .  A
N693        O698   1.261       .  A
N696        O700   1.262       .  A
N696        O699   1.262       .  A
C701        C702   1.424       .  A
C701        C706   1.417       .  A
C701        H708   1.081       .  S
C702        C703   1.412       .  A
C703        C704   1.406       .  A
C703        N710   1.431       .  S
C704        C705   1.429       .  A
C704        H709   1.001       .  S
C705        C706   1.430       .  A
C706        N707   1.436       .  S
N707        O711   1.263       .  A
N707        O712   1.262       .  A
N710        O714   1.261       .  A
N710        O713   1.262       .  A
C715        C716   1.416       .  A
C715        C720   1.405       .  A
C715        H722   1.077       .  S
C716        C717   1.433       .  A
C717        C718   1.398       .  A
C717        N724   1.428       .  S
C718        C719   1.397       .  A
C718        H723   1.084       .  S
C719        C720   1.411       .  A
C720        N721   1.428       .  S
N721        O725   1.261       .  A
N721        O726   1.262       .  A
N724        O728   1.262       .  A
N724        O727   1.262       .  A
C729        C730   1.418       .  A
C729        C734   1.407       .  A
C729        H736   1.080       .  S
C730        C731   1.437       .  A
C731        C732   1.397       .  A
C731        N738   1.432       .  S
C732        C733   1.394       .  A
C732        H737   1.085       .  S
C733        C734   1.409       .  A
C734        N735   1.427       .  S
N735        O739   1.262       .  A
N735        O740   1.262       .  A
N738        O742   1.260       .  A
N738        O741   1.262       .  A
C743        C744   1.398       .  A
C743        C748   1.405       .  A
C743        H750   1.076       .  S
C744        C745   1.441       .  A
C745        C746   1.404       .  A
C745        N752   1.428       .  S
C746        C747   1.401       .  A
C746        H751   1.078       .  S
C747        C748   1.435       .  A
C748        N749   1.424       .  S
N749        O753   1.263       .  A
N749        O754   1.262       .  A
N752        O756   1.262       .  A
N752        O755   1.262       .  A
C757        C758   1.413       .  A
C757        C762   1.399       .  A
C757        H764   1.071       .  S
C758        C759   1.429       .  A
C759        C760   1.393       .  A
C759        N766   1.431       .  S
C760        C761   1.397       .  A
C760        H765   1.084       .  S
C761        C762   1.404       .  A
C762        N763   1.430       .  S
N763        O767   1.262       .  A
N763        O768   1.262       .  A
N766        O770   1.261       .  A
N766        O769   1.262       .  A
C771        C772   1.420       .  A
C771        C776   1.398       .  A
C771        H778   1.084       .  S
C772        C773   1.437       .  A
C773        C774   1.397       .  A
C773        N780   1.431       .  S
C774        C775   1.395       .  A
C774        H779   1.084       .  S
C775        C776   1.407       .  A
C776        N777   1.430       .  S
N777        O781   1.262       .  A
N777        O782   1.262       .  A
N780        O784   1.261       .  A
N780        O783   1.261       .  A
C785        C786   1.419       .  A
C785        C790   1.407       .  A
C785        H792   1.081       .  S
C786        C787   1.433       .  A
C787        C788   1.415       .  A
C787        N794   1.438       .  S
C788        C789   1.412       .  A
C788        H793   1.080       .  S
C789        C790   1.425       .  A
C790        N791   1.433       .  S
N791        O795   1.262       .  A
N791        O796   1.261       .  A
N794        O798   1.263       .  A
N794        O797   1.263       .  A
C799        C800   1.411       .  A
C799       C1700   1.402   1_545  A
C799        H806   1.075       .  S
C800        C801   1.427       .  A
C801       C1698   1.409   1_545  A
C801        N808   1.432       .  S
C802       C1697   1.409       .  A
C802        C803   1.413       .  A
C802        H807   1.070       .  S
C803        C804   1.437       .  A
C804       C1695   1.402       .  A
C804        N805   1.432       .  S
N805        O809   1.262       .  A
N805        O810   1.263       .  A
N808        O812   1.261       .  A
N808        O811   1.262       .  A
C813        C814   1.417       .  A
C813        C818   1.402       .  A
C813        H820   1.077       .  S
C814        C815   1.438       .  A
C815        C816   1.399       .  A
C815        N822   1.435       .  S
C816        C817   1.400       .  A
C816        H821   1.084       .  S
C817        C818   1.406       .  A
C818        N819   1.428       .  S
N819        O823   1.262       .  A
N819        O824   1.262       .  A
N822        O826   1.262       .  A
N822        O825   1.261       .  A
C827        C828   1.417       .  A
C827        C832   1.406       .  A
C827        H834   1.079       .  S
C828        C829   1.439       .  A
C829        C830   1.397       .  A
C829        N836   1.434       .  S
C830        C831   1.397       .  A
C830        H835   1.084       .  S
C831        C832   1.411       .  A
C832        N833   1.428       .  S
N833        O837   1.262       .  A
N833        O838   1.262       .  A
N836        O840   1.261       .  A
N836        O839   1.263       .  A
C841        C842   1.400       .  A
C841        C846   1.406       .  A
C841        H848   1.079       .  S
C842        C843   1.441       .  A
C843        C844   1.406       .  A
C843        N850   1.431       .  S
C844        C845   1.401       .  A
C844        H849   1.078       .  S
C845        C846   1.440       .  A
C846        N847   1.429       .  S
N847        O851   1.262       .  A
N847        O852   1.262       .  A
N850        O854   1.262       .  A
N850        O853   1.262       .  A
C855        C856   1.419       .  A
C855       C1756   1.418       .  A
C855        H862   1.075       .  S
C856        C857   1.436       .  A
C857       C1754   1.398       .  A
C857        N864   1.435       .  S
C858       C1753   1.397   1_545  A
C858        C859   1.415       .  A
C858        H863   1.079       .  S
C859        C860   1.424       .  A
C860       C1751   1.415   1_545  A
C860        N861   1.431       .  S
N861        O865   1.262       .  A
N861        O866   1.262       .  A
N864        O868   1.262       .  A
N864        O867   1.262       .  A
C869        C870   1.397       .  A
C869        C874   1.404       .  A
C869        H876   1.084       .  S
C870        C871   1.409       .  A
C871        C872   1.400       .  A
C871        N878   1.429       .  S
C872        C873   1.416       .  A
C872        H877   1.081       .  S
C873        C874   1.434       .  A
C874        N875   1.430       .  S
N875        O879   1.262       .  A
N875        O880   1.262       .  A
N878        O882   1.262       .  A
N878        O881   1.262       .  A
C883        C884   1.412       .  A
C883        C888   1.399       .  A
C883        H890   1.080       .  S
C884        C885   1.434       .  A
C885        C886   1.392       .  A
C885        N892   1.434       .  S
C886        C887   1.395       .  A
C886        H891   1.084       .  S
C887        C888   1.409       .  A
C888        N889   1.428       .  S
N889        O893   1.262       .  A
N889        O894   1.262       .  A
N892        O896   1.262       .  A
N892        O895   1.260       .  A
C897       C1290   1.578       .  S
C897       C1307   1.590       .  S
C897       C1321   1.570       .  S
C897       C1332   1.561       .  S
C898       C1234   1.597       .  S
C898       C1248   1.592       .  S
C898       C1262   1.569       .  S
C898       C1276   1.575       .  S
In899       O901   2.237       .  S
In899       O902   2.259       .  S
In899      O1358   2.247   1_554  S
In899      O1352   2.269   1_554  S
In899      O1354   2.234   1_554  S
In899       O907   2.256       .  S
In899       O908   2.261       .  S
In899      O1359   2.254   1_554  S
C900       O1354   1.257   1_554  A
C900        O908   1.260       .  A
C900       C1376   1.460   1_554  S
O901        C909   1.260       .  A
O902        C909   1.263       .  A
C903        O910   1.261       .  A
C903        O904   1.260       .  A
C903       C1279   1.489       .  S
O904      In1347   2.274       .  S
C905       O1355   1.260       .  A
C905        O911   1.261       .  A
C905       C1366   1.467   1_655  S
O906      In1347   2.239       .  S
O906       C1348   1.256       .  A
O907       C1353   1.259       .  A
C909       C1265   1.485       .  S
O910      In1347   2.244       .  S
O911      In1347   2.255       .  S
In912      O1362   2.257   1_554  S
In912      O1363   2.233   1_554  S
In912       O923   2.262       .  S
In912       O917   2.243       .  S
In912       O919   2.253       .  S
In912      O1368   2.260   1_554  S
In912      O1369   2.242   1_554  S
In912       O924   2.259       .  S
C913       O1367   1.258       .  A
C913        O921   1.259       .  A
C913       C1389   1.457       .  S
O914      In1360   2.230       .  S
O914        C922   1.262       .  A
O915      In1360   2.251       .  S
O915        C922   1.258       .  A
C916        O923   1.263       .  A
C916        O917   1.264       .  A
C916       C1318   1.486       .  S
C918       O1368   1.257   1_554  A
C918        O924   1.257       .  A
C918       C1353   1.466   1_455  S
O919       C1361   1.257       .  A
O920      In1360   2.256       .  S
O920       C1366   1.259       .  A
O921      In1360   2.246       .  S
C922       C1335   1.473       .  S
C925       C1195   1.580       .  S
C925       C1206   1.553       .  S
C925       C1220   1.562       .  S
C925       C1304   1.596       .  S
C926       C1150   1.584       .  S
C926       C1164   1.570       .  S
C926       C1178   1.581       .  S
C926       C1251   1.589       .  S
In927      O1377   2.247       .  S
In927      O1378   2.275       .  S
In927       O938   2.281   1_556  S
In927       O932   2.219   1_556  S
In927       O934   2.263   1_556  S
In927      O1383   2.265       .  S
In927      O1384   2.235       .  S
In927       O939   2.211   1_556  S
C928       O1382   1.259       .  A
C928        O936   1.256       .  A
C928       C1348   1.462       .  S
O929      In1375   2.255       .  S
O929        C937   1.261       .  A
O930      In1375   2.274       .  S
O930        C937   1.255       .  A
C931        O938   1.264       .  A
C931        O932   1.262       .  A
C931       C1181   1.481       .  S
C933       O1383   1.265   1_554  A
C933        O939   1.259       .  A
C933       C1394   1.462   1_655  S
O934       C1376   1.259   1_554  A
O935      In1375   2.266       .  S
O935       C1381   1.264       .  A
O936      In1375   2.236       .  S
C937       C1167   1.483       .  S
In940       O942   2.185       .  S
In940       O943   2.263       .  S
In940      O1399   2.254   1_554  S
In940      O1393   2.218   1_554  S
In940      O1395   2.243   1_554  S
In940       O948   2.221       .  S
In940       O949   2.255       .  S
In940      O1400   2.273   1_554  S
C941       O1395   1.256   1_554  A
C941        O949   1.258       .  A
C941       C1361   1.458       .  S
O942        C950   1.258       .  A
O943        C950   1.264       .  A
C944        O951   1.262       .  A
C944        O945   1.263       .  A
C944       C1223   1.475       .  S
O945      In1388   2.216       .  S
C946       O1396   1.257       .  A
C946        O952   1.261       .  A
C946       C1381   1.463   1_455  S
O947      In1388   2.254       .  S
O947       C1389   1.257       .  A
O948       C1394   1.255       .  A
C950       C1209   1.467       .  S
O951      In1388   2.252       .  S
O952      In1388   2.270       .  S
C953       C1108   1.590       .  S
C953       C1122   1.579       .  S
C953       C1139   1.549       .  S
C953       C1293   1.584       .  S
C954       C1069   1.585       .  S
C954       C1080   1.575       .  S
C954       C1097   1.586       .  S
C954       C1237   1.581       .  S
In955       O957   2.224       .  S
In955       O958   2.276       .  S
In955      O1414   2.267   1_554  S
In955      O1408   2.254   1_554  S
In955      O1410   2.242   1_554  S
In955       O963   2.280       .  S
In955       O964   2.237       .  S
In955      O1415   2.233   1_554  S
C956       O1410   1.257   1_554  A
C956        O964   1.254       .  A
O957        C965   1.260       .  A
O958        C965   1.260       .  A
C959        O966   1.266       .  A
C959        O960   1.258       .  A
C959       C1094   1.483       .  S
O960      In1403   2.242       .  S
C961       O1411   1.265       .  A
C961        O967   1.256       .  A
C961       C1422   1.471       .  S
O962      In1403   2.235       .  S
O962       C1404   1.258       .  A
O963       C1409   1.263       .  A
C965       C1083   1.484       .  S
O966      In1403   2.273       .  S
O967      In1403   2.220       .  S
In968      O1418   2.236   1_554  S
In968      O1419   2.238   1_554  S
In968       O979   2.246       .  S
In968       O973   2.226       .  S
In968       O975   2.246       .  S
In968      O1424   2.235   1_554  S
In968      O1425   2.226   1_554  S
In968       O980   2.278       .  S
C969       O1423   1.263       .  A
C969        O977   1.258       .  A
O970      In1416   2.240       .  S
O970        C978   1.253       .  A
O971      In1416   2.241       .  S
O971        C978   1.258       .  A
C972        O979   1.264       .  A
C972        O973   1.260       .  A
C972       C1125   1.468       .  S
C974       O1424   1.258   1_554  A
C974        O980   1.263       .  A
C974       C1409   1.470       .  S
O975       C1417   1.261       .  A
O976      In1416   2.228       .  S
O976       C1422   1.256       .  A
O977      In1416   2.222       .  S
C978       C1136   1.465       .  S
C981       C1038   1.566       .  S
C981       C1052   1.564       .  S
C981       C1111   1.605       .  S
C981       C1192   1.584       .  S
C982       C1013   1.584       .  S
C982       C1027   1.585       .  S
C982       C1066   1.588       .  S
C982       C1153   1.616       .  S
In983      O1433   2.230   1_554  S
In983      O1434   2.248   1_554  S
In983       O994   2.255       .  S
In983       O988   2.249       .  S
In983       O990   2.236       .  S
In983      O1439   2.279   1_554  S
In983      O1440   2.231   1_554  S
In983       O995   2.248       .  S
C984       O1438   1.260       .  A
C984        O992   1.257       .  A
O985      In1431   2.229       .  S
O985        C993   1.257       .  A
O986      In1431   2.239       .  S
O986        C993   1.264       .  A
C987        O994   1.263       .  A
C987        O988   1.258       .  A
C987       C1024   1.484       .  S
C989       O1439   1.259   1_554  A
C989        O995   1.257       .  A
C989       C1450   1.470       .  S
O990       C1432   1.261       .  A
O991      In1431   2.272       .  S
O991       C1437   1.258       .  A
O992      In1431   2.226       .  S
C993       C1010   1.475       .  S
In996       O998   2.228   1_556  S
In996       O999   2.223   1_556  S
In996      O1455   2.248       .  S
In996      O1449   2.245       .  S
In996      O1451   2.237       .  S
In996      O1004   2.242   1_556  S
In996      O1005   2.242   1_556  S
In996      O1456   2.286       .  S
C997       O1451   1.257   1_554  A
C997       O1005   1.255       .  A
O998       C1006   1.262       .  A
O999       C1006   1.265       .  A
C1000      O1007   1.260       .  A
C1000      O1001   1.262       .  A
C1000      C1041   1.478       .  S
O1001     In1444   2.235       .  S
C1002      O1452   1.253       .  A
C1002      O1008   1.260       .  A
C1002      C1437   1.464       .  S
O1003     In1444   2.240       .  S
O1003      C1445   1.257       .  A
O1004      C1450   1.253       .  A
C1006      C1055   1.471       .  S
O1007     In1444   2.248       .  S
O1008     In1444   2.278       .  S
C1009      C1010   1.396       .  A
C1009      C1014   1.404       .  A
C1009      H1016   1.084       .  S
C1010      C1011   1.405       .  A
C1011      C1012   1.390       .  A
C1011      N1018   1.429       .  S
C1012      C1013   1.415       .  A
C1012      H1017   1.082       .  S
C1013      C1014   1.434       .  A
C1014      N1015   1.430       .  S
N1015      O1019   1.261       .  A
N1015      O1020   1.261       .  A
N1018      O1022   1.262       .  A
N1018      O1021   1.262       .  A
C1023      C1024   1.395       .  A
C1023      C1028   1.402       .  A
C1023      H1030   1.084       .  S
C1024      C1025   1.406       .  A
C1025      C1026   1.398       .  A
C1025      N1032   1.428       .  S
C1026      C1027   1.414       .  A
C1026      H1031   1.071       .  S
C1027      C1028   1.437       .  A
C1028      N1029   1.426       .  S
N1029      O1033   1.263       .  A
N1029      O1034   1.262       .  A
N1032      O1036   1.262       .  A
N1032      O1035   1.262       .  A
C1037      C1038   1.420       .  A
C1037      C1042   1.391       .  A
C1037      H1044   1.084       .  S
C1038      C1039   1.435       .  A
C1039      C1040   1.403       .  A
C1039      N1046   1.432       .  S
C1040      C1041   1.399       .  A
C1040      H1045   1.084       .  S
C1041      C1042   1.405       .  A
C1042      N1043   1.429       .  S
N1043      O1047   1.262       .  A
N1043      O1048   1.262       .  A
N1046      O1050   1.262       .  A
N1046      O1049   1.261       .  A
C1051      C1052   1.418       .  A
C1051      C1056   1.393       .  A
C1051      H1058   1.075       .  S
C1052      C1053   1.427       .  A
C1053      C1054   1.397       .  A
C1053      N1060   1.422       .  S
C1054      C1055   1.394       .  A
C1054      H1059   1.084       .  S
C1055      C1056   1.403       .  A
C1056      N1057   1.429       .  S
N1057      O1061   1.262       .  A
N1057      O1062   1.262       .  A
N1060      O1064   1.261       .  A
N1060      O1063   1.261       .  A
C1065      C1066   1.416       .  A
C1065      C1070   1.401       .  A
C1065      H1072   1.076       .  S
C1066      C1067   1.431       .  A
C1067      C1068   1.419       .  A
C1067      N1074   1.439       .  S
C1068      C1069   1.423       .  A
C1068      H1073   1.083       .  S
C1069      C1070   1.433       .  A
C1070      N1071   1.436       .  S
N1071      O1075   1.262       .  A
N1071      O1076   1.261       .  A
N1074      O1078   1.260       .  A
N1074      O1077   1.261       .  A
C1079      C1080   1.417       .  A
C1079      C1084   1.407       .  A
C1079      H1086   1.078       .  S
C1080      C1081   1.431       .  A
C1081      C1082   1.394       .  A
C1081      N1088   1.424       .  S
C1082      C1083   1.393       .  A
C1082      H1087   1.084       .  S
C1083      C1084   1.409       .  A
C1084      N1085   1.429       .  S
N1085      O1089   1.262       .  A
N1085      O1090   1.262       .  A
N1088      O1092   1.261       .  A
N1088      O1091   1.261       .  A
C1093      C1094   1.393       .  A
C1093      C1098   1.405       .  A
C1093      H1100   1.084       .  S
C1094      C1095   1.406       .  A
C1095      C1096   1.400       .  A
C1095      N1102   1.429       .  S
C1096      C1097   1.419       .  A
C1096      H1101   1.080       .  S
C1097      C1098   1.436       .  A
C1098      N1099   1.426       .  S
N1099      O1103   1.263       .  A
N1099      O1104   1.256       .  A
N1102      O1106   1.262       .  A
N1102      O1105   1.262       .  A
C1107      C1108   1.421       .  A
C1107      C1112   1.419       .  A
C1107      H1114   1.083       .  S
C1108      C1109   1.438       .  A
C1109      C1110   1.401       .  A
C1109      N1116   1.440       .  S
C1110      C1111   1.421       .  A
C1110      H1115   1.076       .  S
C1111      C1112   1.429       .  A
C1112      N1113   1.431       .  S
N1113      O1117   1.262       .  A
N1113      O1118   1.262       .  A
N1116      O1120   1.262       .  A
N1116      O1119   1.260       .  A
C1121      C1122   1.421       .  A
C1121      C1126   1.392       .  A
C1121      H1128   1.080       .  S
C1122      C1123   1.441       .  A
C1123      C1124   1.402       .  A
C1123      N1130   1.429       .  S
C1124      C1125   1.390       .  A
C1124      H1129   1.085       .  S
C1125      C1126   1.399       .  A
C1126      N1127   1.429       .  S
N1127      O1131   1.262       .  A
N1127      O1132   1.262       .  A
N1130      O1134   1.258       .  A
N1130      O1133   1.262       .  A
C1135      C1136   1.399       .  A
C1135      C1140   1.403       .  A
C1135      H1142   1.084       .  S
C1136      C1137   1.401       .  A
C1137      C1138   1.389       .  A
C1137      N1144   1.430       .  S
C1138      C1139   1.408       .  A
C1138      H1143   1.078       .  S
C1139      C1140   1.431       .  A
C1140      N1141   1.435       .  S
N1141      O1145   1.260       .  A
N1141      O1146   1.261       .  A
N1144      O1148   1.262       .  A
N1144      O1147   1.262       .  A
C1149      C1150   1.424       .  A
C1149      C1154   1.421       .  A
C1149      H1156   1.084       .  S
C1150      C1151   1.416       .  A
C1151      C1152   1.407       .  A
C1151      N1158   1.432       .  S
C1152      C1153   1.427       .  A
C1152      H1157   1.064       .  S
C1153      C1154   1.434       .  A
C1154      N1155   1.434       .  S
N1155      O1159   1.262       .  A
N1155      O1160   1.262       .  A
N1158      O1162   1.261       .  A
N1158      O1161   1.262       .  A
C1163      C1164   1.416       .  A
C1163      C1168   1.406       .  A
C1163      H1170   1.079       .  S
C1164      C1165   1.431       .  A
C1165      C1166   1.398       .  A
C1165      N1172   1.427       .  S
C1166      C1167   1.394       .  A
C1166      H1171   1.085       .  S
C1167      C1168   1.410       .  A
C1168      N1169   1.428       .  S
N1169      O1173   1.262       .  A
N1169      O1174   1.262       .  A
N1172      O1176   1.262       .  A
N1172      O1175   1.262       .  A
C1177      C1178   1.416       .  A
C1177      C1182   1.403       .  A
C1177      H1184   1.070       .  S
C1178      C1179   1.434       .  A
C1179      C1180   1.399       .  A
C1179      N1186   1.430       .  S
C1180      C1181   1.394       .  A
C1180      H1185   1.085       .  S
C1181      C1182   1.406       .  A
C1182      N1183   1.428       .  S
N1183      O1187   1.262       .  A
N1183      O1188   1.262       .  A
N1186      O1190   1.259       .  A
N1186      O1189   1.262       .  A
C1191      C1192   1.399       .  A
C1191      C1196   1.407       .  A
C1191      H1198   1.077       .  S
C1192      C1193   1.439       .  A
C1193      C1194   1.400       .  A
C1193      N1200   1.428       .  S
C1194      C1195   1.400       .  A
C1194      H1199   1.077       .  S
C1195      C1196   1.436       .  A
C1196      N1197   1.424       .  S
N1197      O1201   1.263       .  A
N1197      O1202   1.262       .  A
N1200      O1204   1.262       .  A
N1200      O1203   1.262       .  A
C1205      C1206   1.415       .  A
C1205      C1210   1.397       .  A
C1205      H1212   1.072       .  S
C1206      C1207   1.427       .  A
C1207      C1208   1.392       .  A
C1207      N1214   1.432       .  S
C1208      C1209   1.398       .  A
C1208      H1213   1.085       .  S
C1209      C1210   1.402       .  A
C1210      N1211   1.431       .  S
N1211      O1215   1.262       .  A
N1211      O1216   1.262       .  A
N1214      O1218   1.261       .  A
N1214      O1217   1.262       .  A
C1219      C1220   1.418       .  A
C1219      C1224   1.397       .  A
C1219      H1226   1.084       .  S
C1220      C1221   1.439       .  A
C1221      C1222   1.398       .  A
C1221      N1228   1.432       .  S
C1222      C1223   1.394       .  A
C1222      H1227   1.085       .  S
C1223      C1224   1.405       .  A
C1224      N1225   1.429       .  S
N1225      O1229   1.262       .  A
N1225      O1230   1.262       .  A
N1228      O1232   1.261       .  A
N1228      O1231   1.261       .  A
C1233      C1234   1.421       .  A
C1233      C1238   1.410       .  A
C1233      H1240   1.082       .  S
C1234      C1235   1.434       .  A
C1235      C1236   1.415       .  A
C1235      N1242   1.439       .  S
C1236      C1237   1.411       .  A
C1236      H1241   1.080       .  S
C1237      C1238   1.426       .  A
C1238      N1239   1.434       .  S
N1239      O1243   1.262       .  A
N1239      O1244   1.260       .  A
N1242      O1246   1.263       .  A
N1242      O1245   1.263       .  A
C1247      C1248   1.411       .  A
C1247      H1254   1.074       .  S
C1248      C1249   1.429       .  A
C1249      N1256   1.432       .  S
C1250      C1251   1.411       .  A
C1250      H1255   1.069       .  S
C1251      C1252   1.440       .  A
C1252      N1253   1.437       .  S
N1253      O1257   1.261       .  A
N1253      O1258   1.262       .  A
N1256      O1260   1.261       .  A
N1256      O1259   1.261       .  A
C1261      C1262   1.416       .  A
C1261      C1266   1.398       .  A
C1261      H1268   1.077       .  S
C1262      C1263   1.439       .  A
C1263      C1264   1.402       .  A
C1263      N1270   1.436       .  S
C1264      C1265   1.401       .  A
C1264      H1269   1.084       .  S
C1265      C1266   1.406       .  A
C1266      N1267   1.428       .  S
N1267      O1271   1.261       .  A
N1267      O1272   1.262       .  A
N1270      O1274   1.262       .  A
N1270      O1273   1.261       .  A
C1275      C1276   1.415       .  A
C1275      C1280   1.406       .  A
C1275      H1282   1.079       .  S
C1276      C1277   1.442       .  A
C1277      C1278   1.398       .  A
C1277      N1284   1.434       .  S
C1278      C1279   1.396       .  A
C1278      H1283   1.084       .  S
C1279      C1280   1.411       .  A
C1280      N1281   1.428       .  S
N1281      O1285   1.262       .  A
N1281      O1286   1.262       .  A
N1284      O1288   1.261       .  A
N1284      O1287   1.263       .  A
C1289      C1290   1.400       .  A
C1289      C1294   1.405       .  A
C1289      H1296   1.078       .  S
C1290      C1291   1.441       .  A
C1291      C1292   1.404       .  A
C1291      N1298   1.432       .  S
C1292      C1293   1.402       .  A
C1292      H1297   1.078       .  S
C1293      C1294   1.440       .  A
C1294      N1295   1.429       .  S
N1295      O1299   1.262       .  A
N1295      O1300   1.262       .  A
N1298      O1302   1.262       .  A
N1298      O1301   1.262       .  A
C1303      C1304   1.420       .  A
C1303      H1310   1.075       .  S
C1304      C1305   1.434       .  A
C1305      N1312   1.435       .  S
C1306      C1307   1.414       .  A
C1306      H1311   1.079       .  S
C1307      C1308   1.424       .  A
C1308      N1309   1.431       .  S
N1309      O1313   1.262       .  A
N1309      O1314   1.262       .  A
N1312      O1316   1.262       .  A
N1312      O1315   1.262       .  A
C1317      C1318   1.399       .  A
C1317      C1322   1.402       .  A
C1317      H1324   1.084       .  S
C1318      C1319   1.407       .  A
C1319      C1320   1.401       .  A
C1319      N1326   1.428       .  S
C1320      C1321   1.418       .  A
C1320      H1325   1.081       .  S
C1321      C1322   1.432       .  A
C1322      N1323   1.431       .  S
N1323      O1327   1.262       .  A
N1323      O1328   1.262       .  A
N1326      O1330   1.262       .  A
N1326      O1329   1.262       .  A
C1331      C1332   1.413       .  A
C1331      C1336   1.399       .  A
C1331      H1338   1.079       .  S
C1332      C1333   1.434       .  A
C1333      C1334   1.392       .  A
C1333      N1340   1.434       .  S
C1334      C1335   1.394       .  A
C1334      H1339   1.085       .  S
C1335      C1336   1.408       .  A
C1336      N1337   1.428       .  S
N1337      O1341   1.262       .  A
N1337      O1342   1.262       .  A
N1340      O1344   1.262       .  A
N1340      O1343   1.260       .  A
C1345      C1738   1.578       .  S
C1345      C1755   1.592       .  S
C1345      C1769   1.572       .  S
C1345      C1780   1.562       .  S
C1346      C1682   1.597       .  S
C1346      C1696   1.592       .  S
C1346      C1710   1.572       .  S
C1346      C1724   1.573       .  S
In1347     O1349   2.230       .  S
In1347     O1350   2.262       .  S
In1347     O1355   2.255       .  S
In1347     O1356   2.267       .  S
C1348      O1356   1.260       .  A
O1349      C1357   1.260       .  A
O1350      C1357   1.262       .  A
C1351      O1358   1.261       .  A
C1351      O1352   1.259       .  A
C1351      C1727   1.489       .  S
C1353      O1359   1.260   1_554  A
C1357      C1713   1.483       .  S
In1360     O1371   2.265       .  S
In1360     O1365   2.248       .  S
In1360     O1367   2.237       .  S
In1360     O1372   2.254       .  S
C1361      O1369   1.256   1_554  A
O1362      C1370   1.259       .  A
O1363      C1370   1.262       .  A
C1364      O1371   1.261       .  A
C1364      O1365   1.262       .  A
C1364      C1766   1.486       .  S
C1366      O1372   1.259       .  A
C1370      C1783   1.478       .  S
C1373      C1643   1.578       .  S
C1373      C1654   1.554       .  S
C1373      C1668   1.562       .  S
C1373      C1752   1.594       .  S
C1374      C1598   1.575       .  S
C1374      C1612   1.570       .  S
C1374      C1626   1.581       .  S
C1374      C1699   1.589       .  S
In1375     O1386   2.291       .  S
In1375     O1380   2.233       .  S
In1375     O1382   2.268       .  S
In1375     O1387   2.220       .  S
C1376      O1384   1.255       .  A
O1377      C1385   1.258       .  A
O1378      C1385   1.255       .  A
C1379      O1386   1.263       .  A
C1379      O1380   1.262       .  A
C1379      C1629   1.489       .  S
C1381      O1387   1.259       .  A
C1385      C1615   1.484       .  S
In1388     O1390   2.196       .  S
In1388     O1391   2.254       .  S
In1388     O1396   2.226       .  S
In1388     O1397   2.244       .  S
C1389      O1397   1.256       .  A
O1390      C1398   1.258       .  A
O1391      C1398   1.262       .  A
C1392      O1399   1.261       .  A
C1392      O1393   1.263       .  A
C1392      C1671   1.478       .  S
C1394      O1400   1.261   1_554  A
C1398      C1657   1.466       .  S
C1401      C1556   1.590       .  S
C1401      C1570   1.581       .  S
C1401      C1587   1.548       .  S
C1401      C1741   1.584       .  S
C1402      C1517   1.585       .  S
C1402      C1528   1.572       .  S
C1402      C1545   1.591       .  S
C1402      C1685   1.585       .  S
In1403     O1405   2.215       .  S
In1403     O1406   2.279       .  S
In1403     O1411   2.290       .  S
In1403     O1412   2.234       .  S
C1404      O1412   1.256       .  A
O1405      C1413   1.259       .  A
O1406      C1413   1.262       .  A
C1407      O1414   1.267       .  A
C1407      O1408   1.261       .  A
C1407      C1542   1.488       .  S
C1409      O1415   1.257   1_554  A
C1413      C1531   1.483       .  S
In1416     O1427   2.246       .  S
In1416     O1421   2.230       .  S
In1416     O1423   2.239       .  S
In1416     O1428   2.294       .  S
C1417      O1425   1.256   1_554  A
O1418      C1426   1.255       .  A
O1419      C1426   1.259       .  A
C1420      O1427   1.264       .  A
C1420      O1421   1.260       .  A
C1420      C1573   1.472       .  S
C1422      O1428   1.262       .  A
C1426      C1584   1.463       .  S
C1429      C1486   1.568       .  S
C1429      C1500   1.565       .  S
C1429      C1559   1.603       .  S
C1429      C1640   1.583       .  S
C1430      C1461   1.587       .  S
C1430      C1475   1.583       .  S
C1430      C1514   1.587       .  S
C1430      C1601   1.609       .  S
In1431     O1442   2.246       .  S
In1431     O1436   2.250       .  S
In1431     O1438   2.238       .  S
In1431     O1443   2.237       .  S
C1432      O1440   1.258   1_554  A
O1433      C1441   1.257       .  A
O1434      C1441   1.265       .  A
C1435      O1442   1.262       .  A
C1435      O1436   1.260       .  A
C1435      C1472   1.482       .  S
C1437      O1443   1.257       .  A
C1441      C1458   1.477       .  S
In1444     O1446   2.222       .  S
In1444     O1447   2.219       .  S
In1444     O1452   2.232       .  S
In1444     O1453   2.242       .  S
C1445      O1453   1.255       .  A
O1446      C1454   1.262       .  A
O1447      C1454   1.265       .  A
C1448      O1455   1.260       .  A
C1448      O1449   1.263       .  A
C1448      C1489   1.481       .  S
C1450      O1456   1.260   1_554  A
C1454      C1503   1.471       .  S
C1457      C1458   1.396       .  A
C1457      C1462   1.406       .  A
C1457      H1464   1.084       .  S
C1458      C1459   1.404       .  A
C1459      C1460   1.391       .  A
C1459      N1466   1.429       .  S
C1460      C1461   1.412       .  A
C1460      H1465   1.079       .  S
C1461      C1462   1.435       .  A
C1462      N1463   1.429       .  S
N1463      O1467   1.261       .  A
N1463      O1468   1.261       .  A
N1466      O1470   1.262       .  A
N1466      O1469   1.262       .  A
C1471      C1472   1.397       .  A
C1471      C1476   1.403       .  A
C1471      H1478   1.084       .  S
C1472      C1473   1.404       .  A
C1473      C1474   1.396       .  A
C1473      N1480   1.428       .  S
C1474      C1475   1.417       .  A
C1474      H1479   1.072       .  S
C1475      C1476   1.434       .  A
C1476      N1477   1.426       .  S
N1477      O1481   1.263       .  A
N1477      O1482   1.262       .  A
N1480      O1484   1.262       .  A
N1480      O1483   1.262       .  A
C1485      C1486   1.419       .  A
C1485      C1490   1.392       .  A
C1485      H1492   1.084       .  S
C1486      C1487   1.435       .  A
C1487      C1488   1.405       .  A
C1487      N1494   1.431       .  S
C1488      C1489   1.400       .  A
C1488      H1493   1.084       .  S
C1489      C1490   1.406       .  A
C1490      N1491   1.429       .  S
N1491      O1495   1.262       .  A
N1491      O1496   1.262       .  A
N1494      O1498   1.262       .  A
N1494      O1497   1.261       .  A
C1499      C1500   1.418       .  A
C1499      C1504   1.393       .  A
C1499      H1506   1.073       .  S
C1500      C1501   1.429       .  A
C1501      C1502   1.396       .  A
C1501      N1508   1.422       .  S
C1502      C1503   1.393       .  A
C1502      H1507   1.084       .  S
C1503      C1504   1.403       .  A
C1504      N1505   1.429       .  S
N1505      O1509   1.262       .  A
N1505      O1510   1.262       .  A
N1508      O1512   1.261       .  A
N1508      O1511   1.262       .  A
C1513      C1514   1.414       .  A
C1513      C1518   1.402       .  A
C1513      H1520   1.076       .  S
C1514      C1515   1.433       .  A
C1515      C1516   1.419       .  A
C1515      N1522   1.440       .  S
C1516      C1517   1.421       .  A
C1516      H1521   1.083       .  S
C1517      C1518   1.436       .  A
C1518      N1519   1.436       .  S
N1519      O1523   1.262       .  A
N1519      O1524   1.261       .  A
N1522      O1526   1.261       .  A
N1522      O1525   1.261       .  A
C1527      C1528   1.416       .  A
C1527      C1532   1.407       .  A
C1527      H1534   1.078       .  S
C1528      C1529   1.431       .  A
C1529      C1530   1.394       .  A
C1529      N1536   1.425       .  S
C1530      C1531   1.394       .  A
C1530      H1535   1.084       .  S
C1531      C1532   1.408       .  A
C1532      N1533   1.429       .  S
N1533      O1537   1.262       .  A
N1533      O1538   1.262       .  A
N1536      O1540   1.262       .  A
N1536      O1539   1.261       .  A
C1541      C1542   1.394       .  A
C1541      C1546   1.406       .  A
C1541      H1548   1.084       .  S
C1542      C1543   1.406       .  A
C1543      C1544   1.403       .  A
C1543      N1550   1.428       .  S
C1544      C1545   1.421       .  A
C1544      H1549   1.080       .  S
C1545      C1546   1.437       .  A
C1546      N1547   1.427       .  S
N1547      O1551   1.263       .  A
N1547      O1552   1.256       .  A
N1550      O1554   1.262       .  A
N1550      O1553   1.262       .  A
C1555      C1556   1.420       .  A
C1555      C1560   1.418       .  A
C1555      H1562   1.083       .  S
C1556      C1557   1.438       .  A
C1557      C1558   1.400       .  A
C1557      N1564   1.439       .  S
C1558      C1559   1.419       .  A
C1558      H1563   1.076       .  S
C1559      C1560   1.430       .  A
C1560      N1561   1.432       .  S
N1561      O1565   1.262       .  A
N1561      O1566   1.262       .  A
N1564      O1568   1.262       .  A
N1564      O1567   1.260       .  A
C1569      C1570   1.422       .  A
C1569      C1574   1.393       .  A
C1569      H1576   1.080       .  S
C1570      C1571   1.440       .  A
C1571      C1572   1.402       .  A
C1571      N1578   1.429       .  S
C1572      C1573   1.392       .  A
C1572      H1577   1.085       .  S
C1573      C1574   1.400       .  A
C1574      N1575   1.429       .  S
N1575      O1579   1.262       .  A
N1575      O1580   1.262       .  A
N1578      O1582   1.258       .  A
N1578      O1581   1.262       .  A
C1583      C1584   1.399       .  A
C1583      C1588   1.402       .  A
C1583      H1590   1.084       .  S
C1584      C1585   1.401       .  A
C1585      C1586   1.389       .  A
C1585      N1592   1.429       .  S
C1586      C1587   1.407       .  A
C1586      H1591   1.078       .  S
C1587      C1588   1.432       .  A
C1588      N1589   1.435       .  S
N1589      O1593   1.260       .  A
N1589      O1594   1.261       .  A
N1592      O1596   1.262       .  A
N1592      O1595   1.262       .  A
C1597      C1598   1.424       .  A
C1597      C1602   1.417       .  A
C1597      H1604   1.083       .  S
C1598      C1599   1.414       .  A
C1599      C1600   1.403       .  A
C1599      N1606   1.431       .  S
C1600      C1601   1.426       .  A
C1600      H1605   1.053       .  S
C1601      C1602   1.432       .  A
C1602      N1603   1.436       .  S
N1603      O1607   1.262       .  A
N1603      O1608   1.262       .  A
N1606      O1610   1.261       .  A
N1606      O1609   1.262       .  A
C1611      C1612   1.415       .  A
C1611      C1616   1.403       .  A
C1611      H1618   1.077       .  S
C1612      C1613   1.432       .  A
C1613      C1614   1.398       .  A
C1613      N1620   1.428       .  S
C1614      C1615   1.397       .  A
C1614      H1619   1.084       .  S
C1615      C1616   1.410       .  A
C1616      N1617   1.427       .  S
N1617      O1621   1.262       .  A
N1617      O1622   1.262       .  A
N1620      O1624   1.262       .  A
N1620      O1623   1.262       .  A
C1625      C1626   1.416       .  A
C1625      C1630   1.406       .  A
C1625      H1632   1.079       .  S
C1626      C1627   1.434       .  A
C1627      C1628   1.398       .  A
C1627      N1634   1.432       .  S
C1628      C1629   1.396       .  A
C1628      H1633   1.084       .  S
C1629      C1630   1.411       .  A
C1630      N1631   1.427       .  S
N1631      O1635   1.262       .  A
N1631      O1636   1.262       .  A
N1634      O1638   1.259       .  A
N1634      O1637   1.262       .  A
C1639      C1640   1.399       .  A
C1639      C1644   1.404       .  A
C1639      H1646   1.077       .  S
C1640      C1641   1.439       .  A
C1641      C1642   1.401       .  A
C1641      N1648   1.429       .  S
C1642      C1643   1.402       .  A
C1642      H1647   1.077       .  S
C1643      C1644   1.433       .  A
C1644      N1645   1.423       .  S
N1645      O1649   1.263       .  A
N1645      O1650   1.262       .  A
N1648      O1652   1.262       .  A
N1648      O1651   1.262       .  A
C1653      C1654   1.413       .  A
C1653      C1658   1.395       .  A
C1653      H1660   1.071       .  S
C1654      C1655   1.430       .  A
C1655      C1656   1.393       .  A
C1655      N1662   1.431       .  S
C1656      C1657   1.396       .  A
C1656      H1661   1.085       .  S
C1657      C1658   1.402       .  A
C1658      N1659   1.431       .  S
N1659      O1663   1.262       .  A
N1659      O1664   1.262       .  A
N1662      O1666   1.261       .  A
N1662      O1665   1.262       .  A
C1667      C1668   1.418       .  A
C1667      C1672   1.397       .  A
C1667      H1674   1.084       .  S
C1668      C1669   1.438       .  A
C1669      C1670   1.398       .  A
C1669      N1676   1.432       .  S
C1670      C1671   1.396       .  A
C1670      H1675   1.084       .  S
C1671      C1672   1.407       .  A
C1672      N1673   1.429       .  S
N1673      O1677   1.262       .  A
N1673      O1678   1.262       .  A
N1676      O1680   1.261       .  A
N1676      O1679   1.261       .  A
C1681      C1682   1.419       .  A
C1681      C1686   1.408       .  A
C1681      H1688   1.081       .  S
C1682      C1683   1.433       .  A
C1683      C1684   1.419       .  A
C1683      N1690   1.437       .  S
C1684      C1685   1.414       .  A
C1684      H1689   1.080       .  S
C1685      C1686   1.426       .  A
C1686      N1687   1.433       .  S
N1687      O1691   1.262       .  A
N1687      O1692   1.261       .  A
N1690      O1694   1.262       .  A
N1690      O1693   1.263       .  A
C1695      C1696   1.411       .  A
C1695      H1702   1.075       .  S
C1696      C1697   1.427       .  A
C1697      N1704   1.432       .  S
C1698      C1699   1.412       .  A
C1698      H1703   1.069       .  S
C1699      C1700   1.438       .  A
C1700      N1701   1.432       .  S
N1701      O1705   1.262       .  A
N1701      O1706   1.263       .  A
N1704      O1708   1.261       .  A
N1704      O1707   1.262       .  A
C1709      C1710   1.417       .  A
C1709      C1714   1.400       .  A
C1709      H1716   1.076       .  S
C1710      C1711   1.440       .  A
C1711      C1712   1.400       .  A
C1711      N1718   1.434       .  S
C1712      C1713   1.398       .  A
C1712      H1717   1.084       .  S
C1713      C1714   1.406       .  A
C1714      N1715   1.428       .  S
N1715      O1719   1.262       .  A
N1715      O1720   1.262       .  A
N1718      O1722   1.262       .  A
N1718      O1721   1.261       .  A
C1723      C1724   1.415       .  A
C1723      C1728   1.403       .  A
C1723      H1730   1.079       .  S
C1724      C1725   1.440       .  A
C1725      C1726   1.400       .  A
C1725      N1732   1.434       .  S
C1726      C1727   1.398       .  A
C1726      H1731   1.084       .  S
C1727      C1728   1.410       .  A
C1728      N1729   1.427       .  S
N1729      O1733   1.262       .  A
N1729      O1734   1.262       .  A
N1732      O1736   1.261       .  A
N1732      O1735   1.263       .  A
C1737      C1738   1.400       .  A
C1737      C1742   1.405       .  A
C1737      H1744   1.078       .  S
C1738      C1739   1.441       .  A
C1739      C1740   1.405       .  A
C1739      N1746   1.431       .  S
C1740      C1741   1.402       .  A
C1740      H1745   1.078       .  S
C1741      C1742   1.439       .  A
C1742      N1743   1.429       .  S
N1743      O1747   1.262       .  A
N1743      O1748   1.262       .  A
N1746      O1750   1.262       .  A
N1746      O1749   1.262       .  A
C1751      C1752   1.419       .  A
C1751      H1758   1.075       .  S
C1752      C1753   1.435       .  A
C1753      N1760   1.435       .  S
C1754      C1755   1.415       .  A
C1754      H1759   1.079       .  S
C1755      C1756   1.425       .  A
C1756      N1757   1.431       .  S
N1757      O1761   1.262       .  A
N1757      O1762   1.262       .  A
N1760      O1764   1.262       .  A
N1760      O1763   1.262       .  A
C1765      C1766   1.398       .  A
C1765      C1770   1.402       .  A
C1765      H1772   1.084       .  S
C1766      C1767   1.407       .  A
C1767      C1768   1.402       .  A
C1767      N1774   1.429       .  S
C1768      C1769   1.418       .  A
C1768      H1773   1.080       .  S
C1769      C1770   1.432       .  A
C1770      N1771   1.430       .  S
N1771      O1775   1.262       .  A
N1771      O1776   1.262       .  A
N1774      O1778   1.262       .  A
N1774      O1777   1.262       .  A
C1779      C1780   1.413       .  A
C1779      C1784   1.400       .  A
C1779      H1786   1.079       .  S
C1780      C1781   1.433       .  A
C1781      C1782   1.393       .  A
C1781      N1788   1.434       .  S
C1782      C1783   1.396       .  A
C1782      H1787   1.084       .  S
C1783      C1784   1.409       .  A
C1784      N1785   1.428       .  S
N1785      O1789   1.262       .  A
N1785      O1790   1.262       .  A
N1788      O1792   1.262       .  A
N1788      O1791   1.260       .  A
