geometry optimzed in LAMMPS
_audit_creation_date              2020-12-01 
_audit_creation_method            'lammps2cif' 
_symmetry_space_group_name_H-M    'P1' 
_symmetry_Int_Tables_number       1 
_symmetry_cell_setting            triclinic 
loop_ 
_symmetry_equiv_pos_as_xyz 
  x,y,z 
_cell_length_a                    50.11656266 
_cell_length_b                    50.15819765675861 
_cell_length_c                    50.27783593391875 
_cell_angle_alpha                 90.0906507296123 
_cell_angle_beta                  90.10262737797565 
_cell_angle_gamma                 89.94022463615907 
loop_ 
_atom_site_label 
_atom_site_type_symbol 
_atom_site_fract_x 
_atom_site_fract_y 
_atom_site_fract_z 
_atom_site_charge 
Fe1        Fe  0.77135923  0.82547967  0.60078790     1.65800
Fe2        Fe  0.73184043  0.85276233  0.55257354     1.73200
Fe3        Fe  0.77761065  0.80446470  0.53648984     1.54400
O4          O  0.81587040  0.81283177  0.54994125    -0.81500
O5          O  0.71480617  0.82712792  0.52540107    -0.79900
O6          O  0.81145254  0.82542067  0.59202767    -0.84100
O7          O  0.77083818  0.78459316  0.60102958    -0.78900
O8          O  0.78109157  0.83548545  0.51012953    -0.80700
O9          O  0.70580628  0.83774553  0.58072188    -0.83400
C10         C  0.77391039  0.76613364  0.58408474     0.97300
C11         C  0.82591885  0.81966319  0.57212236     1.04800
O12         O  0.76035326  0.82762528  0.56326771    -1.12400
O13         O  0.74301402  0.88268010  0.57885597    -0.74800
O14         O  0.77342972  0.86604302  0.60623495    -0.78300
O15         O  0.77611091  0.77048923  0.55940709    -0.79000
C16         C  0.75867211  0.88504758  0.59855195     0.96200
O17         O  0.73247234  0.82498124  0.61409913    -0.77000
O18         O  0.75530858  0.86951773  0.52289789    -0.82200
C19         C  0.71989664  0.80439197  0.51568166     0.98900
C20         C  0.77235547  0.85909334  0.50722189     1.04800
O21         O  0.74190048  0.79256410  0.51960603    -0.77800
C22         C  0.70951680  0.82896440  0.60413759     1.03100
Fe23       Fe  0.80650506  0.89772112  0.27208858     1.65800
Fe24       Fe  0.78870750  0.96294495  0.27680052     1.73200
Fe25       Fe  0.83289840  0.94265029  0.22870286     1.54400
O26         O  0.86491317  0.92079136  0.24294958    -0.81500
O27         O  0.77942145  0.98265353  0.24185986    -0.79900
O28         O  0.84617515  0.88858686  0.26664630    -0.84100
O29         O  0.79761186  0.88361750  0.23476297    -0.78900
O30         O  0.84868507  0.97635932  0.24737792    -0.80700
O31         O  0.75295334  0.94266243  0.27354901    -0.83400
C32         C  0.80585385  0.88910068  0.21158970     0.97300
C33         C  0.86629200  0.89887872  0.25542936     1.04800
O34         O  0.80946113  0.93449517  0.25914148    -1.12400
O35         O  0.79459087  0.94759258  0.31460023    -0.74800
O36         O  0.81509938  0.90837526  0.31072045    -0.78300
O37         O  0.81975399  0.90982328  0.20680617    -0.79000
C38         C  0.80603537  0.92739004  0.32470494     0.96200
O39         O  0.76611830  0.90060450  0.27910508    -0.77000
O40         O  0.82225764  0.98597914  0.28187787    -0.82200
C41         C  0.78599815  0.98079254  0.21757855     0.98900
C42         C  0.84306058  0.98999814  0.26806573     1.04800
O43         O  0.80425064  0.96523786  0.20957862    -0.77800
C44         C  0.74801490  0.91817036  0.27730131     1.03100
Fe45       Fe  0.10211066  0.78526238  0.67295667     1.65800
Fe46       Fe  0.03824184  0.79418625  0.69294351     1.73200
Fe47       Fe  0.05391227  0.74216002  0.65207258     1.54400
O48         O  0.07499863  0.75260025  0.61841271    -0.81500
O49         O  0.01509749  0.76152688  0.70358201    -0.79900
O50         O  0.11003251  0.77498690  0.63383995    -0.84100
O51         O  0.11447601  0.74812585  0.68520521    -0.78900
O52         O  0.02073635  0.76180127  0.63647273    -0.80700
O53         O  0.05959709  0.78970475  0.72788493    -0.83400
C54         C  0.10671137  0.72460081  0.67984498     0.97300
C55         C  0.09806293  0.76245973  0.61545161     1.04800
O56         O  0.06469949  0.77379156  0.67244539    -1.12400
O57         O  0.05695737  0.83058767  0.68628400    -0.74800
O58         O  0.09267900  0.82352009  0.66117498    -0.78300
O59         O  0.08579662  0.71970679  0.66624778    -0.79000
C60         C  0.07661985  0.83921152  0.67291672     0.96200
O61         O  0.10060429  0.79689696  0.71239045    -0.77000
O62         O  0.01522324  0.79983036  0.65936773    -0.82200
C63         C  0.01560333  0.73667581  0.69892152     0.98900
C64         C  0.00914459  0.78415072  0.64036074     1.04800
O65         O  0.03163525  0.72631727  0.68250787    -0.77800
C66         C  0.08403609  0.79538149  0.73138868     1.03100
Fe67       Fe  0.21133630  0.18081107  0.38803843     1.65800
Fe68       Fe  0.20309808  0.20372343  0.45148435     1.73200
Fe69       Fe  0.25299607  0.15949206  0.43666168     1.54400
O70         O  0.24467660  0.12862244  0.41021572    -0.81500
O71         O  0.23721928  0.21885285  0.46873392    -0.79900
O72         O  0.20885448  0.13984353  0.38678854    -0.84100
O73         O  0.25031926  0.17987811  0.37427355    -0.78900
O74         O  0.23029361  0.14084924  0.46551017    -0.80700
O75         O  0.20288649  0.23676524  0.42641450    -0.83400
C76         C  0.27354203  0.18080171  0.38440617     0.97300
C77         C  0.22654083  0.12301720  0.39343043     1.04800
O78         O  0.22232815  0.18139090  0.42552616    -1.12400
O79         O  0.16574207  0.19252778  0.43844107    -0.74800
O80         O  0.17077756  0.18216768  0.39579639    -0.78300
O81         O  0.27780197  0.17703283  0.40900393    -0.79000
C82         C  0.15615044  0.18688923  0.41582418     0.96200
O83         O  0.21291899  0.22163682  0.38577239    -0.77000
O84         O  0.20165504  0.17263334  0.47871238    -0.82200
C85         C  0.25990884  0.20888566  0.47346455     0.98900
C86         C  0.21208030  0.14952535  0.48093822     1.04800
O87         O  0.26726637  0.18659936  0.46417004    -0.77800
C88         C  0.20814902  0.24053829  0.40191129     1.03100
Fe89       Fe  0.17723929  0.11401130  0.72062491     1.65800
Fe90       Fe  0.15062022  0.06576574  0.75931794     1.73200
Fe91       Fe  0.19680410  0.04970278  0.71222977     1.54400
O92         O  0.18480202  0.06245442  0.67492326    -0.81500
O93         O  0.17525888  0.03563835  0.77309143    -0.79900
O94         O  0.17909513  0.10598878  0.68034802    -0.84100
O95         O  0.21815457  0.11424923  0.72328259    -0.78900
O96         O  0.16587110  0.02227558  0.71160421    -0.80700
O97         O  0.16864603  0.09165406  0.78594213    -0.83400
C98         C  0.23590986  0.09775909  0.71599966     0.97300
C99         C  0.18104279  0.08559485  0.66542848     1.04800
O100        O  0.17490619  0.07646808  0.73061532    -1.12400
O101        O  0.12197733  0.09482843  0.75114048    -0.74800
O102        O  0.13653455  0.11828481  0.71690128    -0.78300
O103        O  0.23049404  0.07368408  0.71032448    -0.79000
C104        C  0.11888714  0.11335945  0.73418020     0.96200
O105        O  0.17593997  0.12672105  0.75972761    -0.77000
O106        O  0.13135655  0.03877493  0.73461694    -0.82200
C107        C  0.19868250  0.02737871  0.76823163     0.98900
C108        C  0.14176993  0.02123398  0.71947249     1.04800
O109        O  0.21138184  0.03412700  0.74750537    -0.77800
C110        C  0.17474137  0.11602482  0.78262247     1.03100
Fe111      Fe  0.88006523  0.23076718  0.31334174     1.65800
Fe112      Fe  0.93027268  0.26774631  0.34011010     1.73200
Fe113      Fe  0.94357650  0.22308025  0.29016940     1.54400
O114        O  0.92953913  0.18498070  0.29780791    -0.81500
O115        O  0.95715433  0.28479631  0.31428774    -0.79900
O116        O  0.88707250  0.19062939  0.30855119    -0.84100
O117        O  0.87818289  0.23626592  0.27286058    -0.78900
O118        O  0.97164780  0.21803902  0.31989854    -0.80700
O119        O  0.90230519  0.29521563  0.32680872    -0.83400
C120        C  0.89445097  0.23292985  0.25383735     0.97300
C121        C  0.90664551  0.17559791  0.30301534     1.04800
O122        O  0.91808326  0.24040603  0.31460275    -1.12400
O123        O  0.90463509  0.25559796  0.37013210    -0.74800
O124        O  0.87771377  0.22446964  0.35371087    -0.78300
O125        O  0.91875457  0.22668602  0.25742903    -0.79000
C126        C  0.88617344  0.23850238  0.37294969     0.96200
O127        O  0.86722955  0.26953556  0.31764889    -0.77000
O128        O  0.96006693  0.24293078  0.35507332    -0.82200
C129        C  0.96676476  0.27964951  0.29158029     0.98900
C130        C  0.97565756  0.22657149  0.34340577     1.04800
O131        O  0.96116755  0.25851922  0.27890757    -0.77800
C132        C  0.87791079  0.29225271  0.32059165     1.03100
Fe133      Fe  0.72156825  0.32267696  0.60453728     1.65800
Fe134      Fe  0.71212675  0.30092547  0.54121547     1.73200
Fe135      Fe  0.75737865  0.35000594  0.55432493     1.54400
O136        O  0.74667380  0.37947365  0.58144053    -0.81500
O137        O  0.74783090  0.28749426  0.52561132    -0.79900
O138        O  0.71509465  0.36314849  0.60786180    -0.84100
O139        O  0.76069938  0.32755391  0.61648387    -0.78900
O140        O  0.73147164  0.36634173  0.52656618    -0.80700
O141        O  0.71225027  0.26832272  0.56635987    -0.83400
C142        C  0.78326159  0.33069745  0.60551501     0.97300
C143        C  0.72989816  0.38214581  0.60018867     1.04800
O144        O  0.73021785  0.32465063  0.56666261    -1.12400
O145        O  0.67433483  0.31147153  0.55438940    -0.74800
O146        O  0.68123852  0.31704251  0.59779977    -0.78300
O147        O  0.78578424  0.33566553  0.58085815    -0.79000
C148        C  0.66575710  0.31357103  0.57807635     0.96200
O149        O  0.72749755  0.28213654  0.60551264    -0.77000
O150        O  0.70953710  0.33022717  0.51247616    -0.82200
C151        C  0.76810705  0.30059382  0.51811464     0.98900
C152        C  0.71620675  0.35454138  0.51007961     1.04800
O153        O  0.77253192  0.32431467  0.52576528    -0.77800
C154        C  0.71996903  0.26370566  0.58997252     1.03100
Fe155      Fe  0.66765732  0.39780157  0.27625016     1.65800
Fe156      Fe  0.64376752  0.44576960  0.23450944     1.73200
Fe157      Fe  0.69050287  0.46177860  0.28192079     1.54400
O158        O  0.68198219  0.44878305  0.31996775    -0.81500
O159        O  0.67064156  0.47204956  0.21770125    -0.79900
O160        O  0.66815624  0.40686922  0.31622047    -0.84100
O161        O  0.70859539  0.39602498  0.27551098    -0.78900
O162        O  0.65941470  0.48875005  0.28491653    -0.80700
O163        O  0.65856723  0.41618112  0.20969356    -0.83400
C164        C  0.72761877  0.41253435  0.27789788     0.97300
C165        C  0.67492354  0.42680671  0.33015907     1.04800
O166        O  0.66733944  0.43518096  0.26427693    -1.12400
O167        O  0.61270487  0.42087904  0.24554919    -0.74800
O168        O  0.62683237  0.39496903  0.27842076    -0.78300
O169        O  0.72397698  0.43748046  0.28060608    -0.79000
C170        C  0.60875079  0.40267921  0.26256141     0.96200
O171        O  0.66740023  0.38308576  0.23790214    -0.77000
O172        O  0.62711751  0.47642633  0.25675349    -0.82200
C173        C  0.69233430  0.48306546  0.22449968     0.98900
C174        C  0.63640648  0.49189988  0.27465725     1.04800
O175        O  0.70313505  0.47919505  0.24694931    -0.77800
C176        C  0.66472864  0.39204834  0.21446300     1.03100
Fe177      Fe  0.32024727  0.61598392  0.72227164     1.65800
Fe178      Fe  0.29575531  0.55432814  0.70923461     1.73200
Fe179      Fe  0.34209346  0.56344711  0.75794701     1.54400
O180        O  0.37289801  0.59064604  0.75148728    -0.81500
O181        O  0.27944457  0.53768994  0.74317175    -0.79900
O182        O  0.36098916  0.61609616  0.71750483    -0.84100
O183        O  0.32404432  0.62615516  0.76207568    -0.78900
O184        O  0.35974661  0.53713393  0.73202286    -0.80700
O185        O  0.26428256  0.58147879  0.70847294    -0.83400
C186        C  0.32315011  0.61374575  0.78407632     0.97300
C187        C  0.37815562  0.60857525  0.73439418     1.04800
O188        O  0.31927655  0.57785462  0.72969455    -1.12400
O189        O  0.30902727  0.56853171  0.67293514    -0.74800
O190        O  0.31604801  0.61122773  0.68172448    -0.78300
O191        O  0.32543967  0.58861409  0.78577252    -0.79000
C192        C  0.31270516  0.59238117  0.66525283     0.96200
O193        O  0.27965034  0.61948382  0.72595565    -0.77000
O194        O  0.32471438  0.52459148  0.70729776    -0.82200
C195        C  0.29133987  0.52811872  0.76329562     0.98900
C196        C  0.34854541  0.52138657  0.71563870     1.04800
O197        O  0.31520023  0.53416038  0.76923720    -0.77800
C198        C  0.26094904  0.60535911  0.71639616     1.03100
Fe199      Fe  0.38392223  0.28040741  0.67331413     1.65800
Fe200      Fe  0.43474533  0.24267344  0.64846207     1.73200
Fe201      Fe  0.44802910  0.29265224  0.69332634     1.54400
O202        O  0.43203161  0.32920487  0.68210534    -0.81500
O203        O  0.46261506  0.22897795  0.67530458    -0.79900
O204        O  0.38986031  0.32081425  0.67177436    -0.84100
O205        O  0.38362217  0.28134401  0.71414637    -0.78900
O206        O  0.47504137  0.29561414  0.66203313    -0.80700
O207        O  0.40785007  0.21563561  0.66413685    -0.83400
C208        C  0.40025533  0.28671883  0.73238763     0.97300
C209        C  0.40878222  0.33704768  0.67554979     1.04800
O210        O  0.42227069  0.27195915  0.67168611    -1.12400
O211        O  0.40836622  0.25113694  0.61788927    -0.74800
O212        O  0.37874451  0.28047097  0.63270759    -0.78300
O213        O  0.42456894  0.29201511  0.72750581    -0.79000
C214        C  0.38794302  0.26573313  0.61444136     0.96200
O215        O  0.37288123  0.24097329  0.67503820    -0.77000
O216        O  0.46316170  0.26651671  0.63054608    -0.82200
C217        C  0.47233600  0.23641637  0.69736448     0.98900
C218        C  0.47829475  0.28492994  0.63927072     1.04800
O219        O  0.46720575  0.25894547  0.70767273    -0.77800
C220        C  0.38380356  0.21841247  0.67155627     1.03100
Fe221      Fe  0.60177167  0.73609859  0.31384175     1.65800
Fe222      Fe  0.53966494  0.72412331  0.29031178     1.73200
Fe223      Fe  0.54991603  0.77103234  0.33820322     1.54400
O224        O  0.57758969  0.76287583  0.36808296    -0.81500
O225        O  0.52360805  0.75889395  0.27530871    -0.79900
O226        O  0.60258514  0.72906636  0.35412404    -0.84100
O227        O  0.61243106  0.77561665  0.31986312    -0.78900
O228        O  0.52360704  0.74437687  0.35503028    -0.80700
O229        O  0.56681099  0.72356844  0.25872304    -0.83400
C230        C  0.60033657  0.79790361  0.32053022     0.97300
C231        C  0.59548573  0.74533725  0.37212014     1.04800
O232        O  0.56369994  0.74364004  0.31411218    -1.12400
O233        O  0.55342175  0.68742760  0.30260898    -0.74800
O234        O  0.59672238  0.69559248  0.30722945    -0.78300
O235        O  0.57516900  0.79968615  0.32284534    -0.79000
C236        C  0.57740961  0.67948295  0.30424165     0.96200
O237        O  0.60401523  0.74270165  0.27370035    -0.77000
O238        O  0.50982805  0.72170031  0.31918099    -0.82200
C239        C  0.51459682  0.77891008  0.28786628     0.98900
C240        C  0.50724250  0.72888343  0.34338850     1.04800
O241        O  0.52061907  0.78372306  0.31194471    -0.77800
C242        C  0.59022839  0.73269366  0.25500066     1.03100
Fe243      Fe  0.26915499  0.68158378  0.38416733     1.65800
Fe244      Fe  0.22944807  0.65970768  0.43456210     1.73200
Fe245      Fe  0.27998612  0.70411599  0.44728410     1.54400
O246        O  0.31675574  0.69695596  0.42900711    -0.81500
O247        O  0.21269489  0.69043219  0.45562196    -0.79900
O248        O  0.30879922  0.67452995  0.39183320    -0.84100
O249        O  0.27528438  0.72224651  0.38324236    -0.78900
O250        O  0.28675614  0.67216633  0.47243951    -0.80700
O251        O  0.20465385  0.67027651  0.40324116    -0.83400
C252        C  0.27521713  0.74155037  0.39959799     0.97300
C253        C  0.32492154  0.68492344  0.40822575     1.04800
O254        O  0.25953212  0.68169264  0.42204658    -1.12400
O255        O  0.24168728  0.62589207  0.41440539    -0.74800
O256        O  0.26374410  0.64114280  0.37921277    -0.78300
O257        O  0.27489268  0.73821980  0.42463724    -0.79000
C258        C  0.25279106  0.62237485  0.39199335     0.96200
O259        O  0.23060368  0.68848033  0.37215187    -0.77000
O260        O  0.25024028  0.64688450  0.46793341    -0.82200
C261        C  0.22197671  0.70938582  0.46938706     0.98900
C262        C  0.27199650  0.65284428  0.47960774     1.04800
O263        O  0.24661462  0.71540075  0.46936819    -0.77800
C264        C  0.20794555  0.68160629  0.38093566     1.03100
Fe265      Fe  0.81254739  0.61532357  0.76955647     1.65800
Fe266      Fe  0.83722519  0.56734795  0.72865822     1.73200
Fe267      Fe  0.79056847  0.55189336  0.77577486     1.54400
O268        O  0.79604903  0.56906810  0.81321839    -0.81500
O269        O  0.80779811  0.54634455  0.70911523    -0.79900
O270        O  0.82124117  0.60498993  0.80805692    -0.84100
O271        O  0.77203561  0.61498785  0.77722066    -0.78900
O272        O  0.82267391  0.52730170  0.78334062    -0.80700
O273        O  0.82695357  0.60033554  0.70573405    -0.83400
C274        C  0.75284757  0.59882457  0.77400725     0.97300
C275        C  0.80963777  0.58825180  0.82288332     1.04800
O276        O  0.81349628  0.57808730  0.75784464    -1.12400
O277        O  0.87013156  0.58704998  0.74392656    -0.74800
O278        O  0.85258685  0.62268007  0.76309713    -0.78300
O279        O  0.75642030  0.57418961  0.76958950    -0.79000
C280        C  0.87245642  0.61027862  0.75358348     0.96200
O281        O  0.80392430  0.62815143  0.73197503    -0.77000
O282        O  0.84979826  0.53325869  0.74852245    -0.82200
C283        C  0.78867216  0.53187831  0.71698631     0.98900
C284        C  0.84320536  0.52122569  0.76980838     1.04800
O285        O  0.78144731  0.53100343  0.74117571    -0.77800
C286        C  0.81327356  0.62141631  0.70951698     1.03100
Fe287      Fe  0.88516403  0.28288640  0.81386117     1.65800
Fe288      Fe  0.94946996  0.29482480  0.79601797     1.73200
Fe289      Fe  0.93494085  0.24574709  0.84031993     1.54400
O290        O  0.90524809  0.25232793  0.86839424    -0.81500
O291        O  0.96695978  0.26044908  0.78091641    -0.79900
O292        O  0.87988651  0.28576001  0.85451541    -0.84100
O293        O  0.87419458  0.24324206  0.81441159    -0.78900
O294        O  0.96028942  0.27105699  0.86079103    -0.80700
O295        O  0.92589626  0.29659285  0.76194589    -0.83400
C296        C  0.88620377  0.22093574  0.81491004     0.97300
C297        C  0.88619073  0.26867870  0.87198413     1.04800
O298        O  0.92320701  0.27464383  0.81675025    -1.12400
O299        O  0.93463683  0.33140631  0.80851951    -0.74800
O300        O  0.89124143  0.32352672  0.81249868    -0.78300
O301        O  0.91067167  0.21849898  0.82111564    -0.79000
C302        C  0.91076939  0.33954252  0.81149455     0.96200
O303        O  0.88597820  0.28069810  0.77303411    -0.77000
O304        O  0.97632045  0.29574607  0.82757001    -0.82200
C305        C  0.97428789  0.23945060  0.79298206     0.98900
C306        C  0.97740261  0.28723966  0.85143486     1.04800
O307        O  0.96609466  0.23367763  0.81611409    -0.77800
C308        C  0.90237939  0.28922873  0.75588728     1.03100
Fe309      Fe  0.76867456  0.68357298  0.10016633     1.65800
Fe310      Fe  0.77964996  0.70267776  0.03655884     1.73200
Fe311      Fe  0.72798702  0.66032398  0.05114362     1.54400
O312        O  0.73939938  0.62695214  0.07269483    -0.81500
O313        O  0.74672687  0.71434893  0.01442617    -0.79900
O314        O  0.75911437  0.64447417  0.10822772    -0.84100
O315        O  0.73080111  0.69548281  0.11049920    -0.78900
O316        O  0.74807500  0.64543753  0.01819896    -0.80700
O317        O  0.77596107  0.73800317  0.05756213    -0.83400
C318        C  0.70787888  0.68790918  0.10277358     0.97300
C319        C  0.74866224  0.62495830  0.09613513     1.04800
O320        O  0.75874126  0.68202568  0.06249896    -1.12400
O321        O  0.81579729  0.69440304  0.05532331    -0.74800
O322        O  0.80737507  0.67202938  0.09244708    -0.78300
O323        O  0.70422060  0.67311865  0.08251946    -0.79000
C324        C  0.82371501  0.68159421  0.07567819     0.96200
O325        O  0.77956683  0.72311845  0.09901613    -0.77000
O326        O  0.78514033  0.66961844  0.01268031    -0.82200
C327        C  0.72205068  0.70874207  0.01400963     0.98900
C328        C  0.76975634  0.65057622  0.00609338     1.04800
O329        O  0.71200690  0.69070882  0.02852858    -0.77800
C330        C  0.77929841  0.74192454  0.08224057     1.03100
Fe331      Fe  0.17094000  0.39418937  0.21842887     1.65800
Fe332      Fe  0.19133676  0.45822848  0.20957931     1.73200
Fe333      Fe  0.14685779  0.44267841  0.25884504     1.54400
O334        O  0.11652090  0.41620177  0.24854167    -0.81500
O335        O  0.20649520  0.47472653  0.24427616    -0.79900
O336        O  0.13020644  0.39215394  0.21399268    -0.84100
O337        O  0.16825322  0.38008468  0.25694633    -0.78900
O338        O  0.12848056  0.47239176  0.23679943    -0.80700
O339        O  0.22464035  0.43349370  0.20827526    -0.83400
C340        C  0.16790234  0.39020952  0.28005092     0.97300
C341        C  0.11238594  0.39863971  0.23066238     1.04800
O342        O  0.16964553  0.43187371  0.22881081    -1.12400
O343        O  0.17940043  0.44515707  0.17210592    -0.74800
O344        O  0.17467398  0.40155731  0.17822693    -0.78300
O345        O  0.16358857  0.41477111  0.28408929    -0.79000
C346        C  0.17706254  0.42159968  0.16310355     0.96200
O347        O  0.21161845  0.39326318  0.22216166    -0.77000
O348        O  0.16052701  0.48575753  0.20891564    -0.82200
C349        C  0.19648950  0.47884854  0.26708965     0.98900
C350        C  0.13758488  0.48837643  0.21940290     1.04800
O351        O  0.17397086  0.46969985  0.27396260    -0.77800
C352        C  0.22961851  0.40958420  0.21518416     1.03100
Fe353      Fe  0.09927595  0.72702019  0.17523552     1.65800
Fe354      Fe  0.04972337  0.76644194  0.15067983     1.73200
Fe355      Fe  0.03611352  0.71969593  0.19807507     1.54400
O356        O  0.05428964  0.68276303  0.19350681    -0.81500
O357        O  0.02873624  0.78578726  0.17986960    -0.79900
O358        O  0.09005933  0.68767651  0.16786971    -0.84100
O359        O  0.09951483  0.72000337  0.21577923    -0.78900
O360        O  0.01114974  0.71088638  0.16670482    -0.80700
O361        O  0.08199374  0.79059402  0.16042803    -0.83400
C362        C  0.08335600  0.72275646  0.23498988     0.97300
C363        C  0.07373620  0.67305541  0.18051530     1.04800
O364        O  0.06161725  0.73775341  0.17450769    -1.12400
O365        O  0.06944637  0.75151466  0.11790621    -0.74800
O366        O  0.10588843  0.73312726  0.13506305    -0.78300
O367        O  0.05865323  0.72702008  0.23162771    -0.79000
C368        C  0.09299852  0.74265572  0.11553822     0.96200
O369        O  0.11115913  0.76534757  0.18294914    -0.77000
O370        O  0.01577067  0.74556265  0.13905863    -0.82200
C371        C  0.01444186  0.77787124  0.19899572     0.98900
C372        C  0.00384696  0.72448593  0.14667511     1.04800
O373        O  0.01431652  0.75380031  0.20666496    -0.77800
C374        C  0.10308478  0.78770111  0.17427386     1.03100
Fe375      Fe  0.22063167  0.32336363  0.88471089     1.65800
Fe376      Fe  0.25719126  0.35215698  0.93351825     1.73200
Fe377      Fe  0.20993325  0.30584474  0.94896517     1.54400
O378        O  0.17257254  0.31665217  0.93453766    -0.81500
O379        O  0.27110567  0.32820605  0.96422408    -0.79900
O380        O  0.18020511  0.31927361  0.89112401    -0.84100
O381        O  0.22567652  0.28282559  0.88601002    -0.78900
O382        O  0.20813035  0.33740893  0.97572168    -0.80700
O383        O  0.28500792  0.33438887  0.90864898    -0.83400
C384        C  0.21789685  0.26546576  0.90256405     0.97300
C385        C  0.16429729  0.31776120  0.91063920     1.04800
O386        O  0.22910215  0.32718728  0.92247861    -1.12400
O387        O  0.24826264  0.37977929  0.90375779    -0.74800
O388        O  0.21493340  0.36361376  0.87967402    -0.78300
O389        O  0.20957356  0.27150826  0.92568910    -0.79000
C390        C  0.23138943  0.38202328  0.88490071     0.96200
O391        O  0.25996911  0.32654534  0.87278883    -0.77000
O392        O  0.23173058  0.37152352  0.95977061    -0.82200
C393        C  0.26596961  0.30491358  0.97264191     0.98900
C394        C  0.21616129  0.36147992  0.97707145     1.04800
O395        O  0.24503992  0.29233939  0.96594729    -0.77800
C396        C  0.28250656  0.32822954  0.88424274     1.03100
Fe397      Fe  0.60406518  0.78423469  0.81452517     1.65800
Fe398      Fe  0.55264036  0.74616798  0.83656571     1.73200
Fe399      Fe  0.54167231  0.79543026  0.79109578     1.54400
O400        O  0.56113680  0.83148903  0.79779531    -0.81500
O401        O  0.53295906  0.72830874  0.80525904    -0.79900
O402        O  0.59667388  0.82352251  0.82337832    -0.84100
O403        O  0.60531909  0.79261125  0.77442185    -0.78900
O404        O  0.51668516  0.80417474  0.82243023    -0.80700
O405        O  0.58512098  0.72129328  0.82791560    -0.83400
C406        C  0.58957858  0.79034780  0.75479972     0.97300
C407        C  0.58084859  0.83942691  0.81168547     1.04800
O408        O  0.56602741  0.77528992  0.81423087    -1.12400
O409        O  0.57142149  0.76027229  0.87056382    -0.74800
O410        O  0.60946270  0.77612961  0.85444101    -0.78300
O411        O  0.56451100  0.78827617  0.75758937    -0.79000
C412        C  0.59557905  0.76727872  0.87353557     0.96200
O413        O  0.61451866  0.74596922  0.80540191    -0.77000
O414        O  0.51816887  0.76738252  0.84735580    -0.82200
C415        C  0.51879977  0.73773337  0.78659480     0.98900
C416        C  0.50738533  0.78949884  0.84075092     1.04800
O417        O  0.51873457  0.76238054  0.78077985    -0.77800
C418        C  0.60654589  0.72385152  0.81453009     1.03100
Fe419      Fe  0.26876931  0.82177837  0.88690445     1.65800
Fe420      Fe  0.27769956  0.79935913  0.95058125     1.73200
Fe421      Fe  0.22826423  0.84444959  0.93625864     1.54400
O422        O  0.23674008  0.87548526  0.91056424    -0.81500
O423        O  0.24341355  0.78492359  0.96830974    -0.79900
O424        O  0.26922625  0.86275327  0.88366900    -0.84100
O425        O  0.22955041  0.82028646  0.87411273    -0.78900
O426        O  0.25163110  0.86233087  0.96522000    -0.80700
O427        O  0.27756474  0.76609575  0.92617863    -0.83400
C428        C  0.20633647  0.82164756  0.88422656     0.97300
C429        C  0.25286359  0.88024090  0.89180122     1.04800
O430        O  0.25836729  0.82183877  0.92462735    -1.12400
O431        O  0.31508319  0.80982718  0.93658576    -0.74800
O432        O  0.30936407  0.82259288  0.89450856    -0.78300
O433        O  0.20257475  0.82817283  0.90835838    -0.79000
C434        C  0.32423600  0.81666690  0.91408707     0.96200
O435        O  0.26960704  0.78089882  0.88515818    -0.77000
O436        O  0.28007049  0.83029310  0.97783105    -0.82200
C437        C  0.22094998  0.79537342  0.97329640     0.98900
C438        C  0.26996341  0.85345141  0.98042008     1.04800
O439        O  0.21370277  0.81743152  0.96346661    -0.77800
C440        C  0.27417691  0.76217343  0.90142907     1.03100
Fe441      Fe  0.67686632  0.11633240  0.76838534     1.65800
Fe442      Fe  0.69758811  0.05266808  0.77945489     1.73200
Fe443      Fe  0.65089878  0.06555537  0.73213852     1.54400
O444        O  0.62178468  0.09416841  0.73928141    -0.81500
O445        O  0.71237781  0.03586367  0.74486722    -0.79900
O446        O  0.63609300  0.12057938  0.77154407    -0.84100
O447        O  0.67558410  0.12698258  0.72864462    -0.78900
O448        O  0.63214715  0.03991260  0.75824788    -0.80700
O449        O  0.73085868  0.07710799  0.78034375    -0.83400
C450        C  0.67394919  0.11487262  0.70644481     0.97300
C451        C  0.61804737  0.11323215  0.75545396     1.04800
O452        O  0.67515278  0.07823885  0.76008772    -1.12400
O453        O  0.68527327  0.06687922  0.81607830    -0.74800
O454        O  0.67823145  0.11005730  0.80897270    -0.78300
O455        O  0.66830500  0.09026593  0.70433530    -0.79000
C456        C  0.68022398  0.09024236  0.82452236     0.96200
O457        O  0.71785223  0.11699672  0.76623508    -0.77000
O458        O  0.66718927  0.02480265  0.78128200    -0.82200
C459        C  0.69941726  0.02735059  0.72491813     0.98900
C460        C  0.64276080  0.02355323  0.77445693     1.04800
O461        O  0.67588240  0.03509045  0.71974828    -0.77800
C462        C  0.73593006  0.10099177  0.77384812     1.03100
Fe463      Fe  0.38236534  0.22621807  0.17696048     1.65800
Fe464      Fe  0.44600379  0.22138855  0.20081536     1.73200
Fe465      Fe  0.43072131  0.26669762  0.15290152     1.54400
O466        O  0.40328860  0.25775824  0.12346019    -0.81500
O467        O  0.46035757  0.25756418  0.21437737    -0.79900
O468        O  0.38002875  0.22244805  0.13597083    -0.84100
O469        O  0.36852948  0.26512067  0.17473718    -0.78900
O470        O  0.45871353  0.24215100  0.13518492    -0.80700
O471        O  0.42068821  0.22111328  0.23347619    -0.83400
C472        C  0.37881332  0.28830638  0.17403831     0.97300
C473        C  0.38599056  0.23996005  0.11879131     1.04800
O474        O  0.41969185  0.23785015  0.17690161    -1.12400
O475        O  0.43480766  0.18299970  0.19098368    -0.74800
O476        O  0.39184987  0.18601800  0.17975239    -0.78300
O477        O  0.40345730  0.29243194  0.16974594    -0.79000
C478        C  0.41249647  0.17240212  0.18548715     0.96200
O479        O  0.37978312  0.22895101  0.21777713    -0.77000
O480        O  0.47419242  0.21962578  0.17050448    -0.82200
C481        C  0.46751500  0.27781199  0.20124484     0.98900
C482        C  0.47542592  0.22638103  0.14607234     1.04800
O483        O  0.45969206  0.28199538  0.17769873    -0.77800
C484        C  0.39590089  0.22524087  0.23692474     1.03100
Fe485      Fe  0.71251583  0.18667324  0.10214513     1.65800
Fe486      Fe  0.75434540  0.16667049  0.05254850     1.73200
Fe487      Fe  0.70118397  0.20771748  0.03897398     1.54400
O488        O  0.66510659  0.19931387  0.05753652    -0.81500
O489        O  0.76922318  0.19760833  0.03020821    -0.79900
O490        O  0.67375150  0.17608455  0.09413287    -0.84100
O491        O  0.70259947  0.22655159  0.10239652    -0.78900
O492        O  0.69610369  0.17466943  0.01487167    -0.80700
O493        O  0.77799396  0.18011456  0.08385718    -0.83400
C494        C  0.70211863  0.24577468  0.08604822     0.97300
C495        C  0.65743490  0.18636669  0.07781054     1.04800
O496        O  0.72275221  0.18693128  0.06447626    -1.12400
O497        O  0.74439290  0.13241378  0.07333966    -0.74800
O498        O  0.72123498  0.14696555  0.10799274    -0.78300
O499        O  0.70453735  0.24255071  0.06108035    -0.79000
C500        C  0.73303456  0.12846984  0.09553241     0.96200
O501        O  0.75010439  0.19744841  0.11389226    -0.77000
O502        O  0.73422629  0.15167057  0.01960778    -0.82200
C503        C  0.75832500  0.21479513  0.01530800     0.98900
C504        C  0.71195924  0.15601679  0.00811688     1.04800
O505        O  0.73352691  0.21989114  0.01618612    -0.77800
C506        C  0.77342378  0.19252262  0.10546661     1.03100
Fe507      Fe  0.30835847  0.89524513  0.21972045     1.65800
Fe508      Fe  0.33592033  0.94469401  0.25641979     1.73200
Fe509      Fe  0.28664859  0.95895642  0.21145454     1.54400
O510        O  0.29687250  0.94590627  0.17337437    -0.81500
O511        O  0.31034328  0.97269008  0.27252825    -0.79900
O512        O  0.30367532  0.90268472  0.17993089    -0.84100
O513        O  0.26793179  0.89428843  0.22515128    -0.78900
O514        O  0.31632972  0.98776980  0.20936082    -0.66300
O515        O  0.32141157  0.91766200  0.28389819    -0.83400
C516        C  0.24927362  0.91004402  0.21877403     0.97300
C517        C  0.30047474  0.92239696  0.16449734     1.04800
O518        O  0.31037814  0.93305837  0.22906084    -1.12400
O519        O  0.36526012  0.91760859  0.24518170    -0.74800
O520        O  0.34864746  0.89199824  0.21331466    -0.78300
O521        O  0.25359468  0.93392760  0.21156291    -0.79000
C522        C  0.36771312  0.89881197  0.22833976     0.96200
O523        O  0.31246709  0.88238211  0.25840218    -0.77000
O524        O  0.35222574  0.97331122  0.23156425    -0.82200
C525        C  0.28651063  0.98026894  0.26853391     0.98900
C526        C  0.34034288  0.99052276  0.21720908     1.04800
O527        O  0.27363776  0.97433004  0.24754378    -0.77800
C528        C  0.31510286  0.89331704  0.28100269     1.03100
C529        C  0.41001533  0.10104933  0.21129954    -0.22300
C530        C  0.39510799  0.08871452  0.19117632     0.09600
C531        C  0.38886357  0.10308895  0.16789623     0.10000
C532        C  0.39643533  0.12997882  0.16587172    -0.17300
C533        C  0.40981567  0.14298505  0.18675471    -0.27700
C534        C  0.41718204  0.12807608  0.20967475     0.18400
C535        C  0.38185139  0.06296972  0.19718994     0.12300
C536        C  0.37314611  0.09035071  0.14571921    -0.12000
H537        H  0.39081776  0.14127209  0.14836433     0.12600
C538        C  0.43051082  0.14004532  0.23387014    -0.22900
H539        H  0.41440447  0.09000342  0.22931843     0.08300
C540        C  0.39348512  0.03796882  0.19154442     0.04600
C541        C  0.37958910  0.01448245  0.19822576    -0.20100
C542        C  0.35438157  0.01558775  0.21044042    -0.12400
C543        C  0.34315626  0.04083921  0.21662448     0.13300
C544        C  0.35692542  0.06405330  0.20962481    -0.22800
C545        C  0.42049350  0.03616252  0.17864905    -0.05900
H546        H  0.38833418  0.99521422  0.19378582     0.14800
C547        C  0.31731091  0.04440564  0.23161654    -0.16100
H548        H  0.34829975  0.08333599  0.21434319     0.09200
H549        H  0.45012071  0.13023280  0.23709212     0.07000
H550        H  0.41783991  0.13656842  0.25163331     0.08200
H551        H  0.43378897  0.16175790  0.23266810     0.07300
H552        H  0.35332238  0.08395504  0.15315996     0.02100
H553        H  0.38405882  0.07270234  0.13802279     0.02600
H554        H  0.36990963  0.10434682  0.12892256     0.06100
H555        H  0.42671811  0.01512642  0.17556086     0.05100
H556        H  0.43559566  0.04604363  0.19147809    -0.00700
H557        H  0.42004933  0.04618535  0.15899538     0.00800
H558        H  0.32099885  0.05655365  0.24974485     0.04500
H559        H  0.30825587  0.02550610  0.23829401     0.06400
H560        H  0.30266200  0.05501943  0.21885309     0.07300
C561        C  0.53159252  0.18239090  0.12057067    -0.22300
C562        C  0.54732139  0.20121803  0.10735019     0.09600
C563        C  0.53771847  0.22749010  0.10410686     0.10000
C564        C  0.51314298  0.23469750  0.11544542    -0.17300
C565        C  0.49816468  0.21630161  0.13022331    -0.27700
C566        C  0.50703188  0.18950118  0.13188905     0.18400
C567        C  0.57500016  0.19395954  0.09986916     0.12300
C568        C  0.55403103  0.24822546  0.08984850    -0.12000
H569        H  0.50636035  0.25518303  0.11408183     0.12600
C570        C  0.49113845  0.16782217  0.14523695    -0.22900
H571        H  0.53890799  0.16215002  0.12271497     0.08300
C572        C  0.59530838  0.19315782  0.11929966     0.04600
C573        C  0.62174072  0.18882823  0.11143169    -0.20100
C574        C  0.62859820  0.18579054  0.08450163    -0.12400
C575        C  0.60802236  0.18531535  0.06512422     0.13300
C576        C  0.58139983  0.18932312  0.07311321    -0.22800
C577        C  0.58927331  0.19806486  0.14827225    -0.05900
H578        H  0.63735044  0.18929530  0.12637938     0.14800
C579        C  0.61385727  0.18014824  0.03620282    -0.16100
H580        H  0.56557707  0.18957059  0.05839038     0.09200
H581        H  0.50209642  0.16051050  0.16300408     0.07000
H582        H  0.48833657  0.15096757  0.13116147     0.08200
H583        H  0.47096845  0.17440119  0.15132546     0.07300
H584        H  0.55739244  0.24192254  0.06894909     0.02100
H585        H  0.57359396  0.25071585  0.09995401     0.02600
H586        H  0.54384981  0.26790279  0.08956146     0.06100
H587        H  0.60760142  0.19747198  0.16071035     0.05100
H588        H  0.57545016  0.18253744  0.15575942    -0.00700
H589        H  0.57992935  0.21799799  0.15074666     0.00800
H590        H  0.59525039  0.17852233  0.02427579     0.04500
H591        H  0.62494732  0.16111016  0.03422578     0.06400
H592        H  0.62579409  0.19665910  0.02771096     0.07300
C593        C  0.67456164  0.11521544  0.95617016    -0.22300
C594        C  0.69251687  0.11669874  0.93488306     0.09600
C595        C  0.71731547  0.12957834  0.93841403     0.10000
C596        C  0.72358785  0.14071480  0.96320950    -0.17300
C597        C  0.70532592  0.14011171  0.98430417    -0.27700
C598        C  0.68066233  0.12678143  0.98093033     0.18400
C599        C  0.68447035  0.10672696  0.90833467     0.12300
C600        C  0.73664057  0.13273855  0.91566407    -0.12000
H601        H  0.74234217  0.15118977  0.96575031     0.12600
C602        C  0.66055340  0.12408360  0.00297175    -0.22900
H603        H  0.65552726  0.10535352  0.95331610     0.08300
C604        C  0.69405930  0.08234825  0.89820929     0.04600
C605        C  0.69099932  0.07673076  0.87100700    -0.20100
C606        C  0.67828780  0.09487597  0.85375343    -0.12400
C607        C  0.66588660  0.11785288  0.86483839     0.13300
C608        C  0.66941670  0.12353373  0.89196264    -0.22800
C609        C  0.70784016  0.06253418  0.91606323    -0.05900
H610        H  0.69971648  0.05862660  0.86304787     0.14800
C611        C  0.64889613  0.13657442  0.84853051    -0.16100
H612        H  0.66145112  0.14186481  0.90022681     0.09200
H613        H  0.65654098  0.10263018  0.00661428     0.07000
H614        H  0.64164578  0.13395210  0.99698548     0.08200
H615        H  0.66744243  0.13291122  0.02199557     0.07300
H616        H  0.72695171  0.14392802  0.89923223     0.02100
H617        H  0.74300387  0.11292096  0.90819591     0.02600
H618        H  0.75481202  0.14385478  0.92176710     0.06100
H619        H  0.71391025  0.04432575  0.90501578     0.05100
H620        H  0.69406136  0.05649115  0.93223333    -0.00700
H621        H  0.72598126  0.07148703  0.92501927     0.00800
H622        H  0.63868850  0.15158988  0.86121105     0.04500
H623        H  0.63325004  0.12513055  0.83780584     0.06400
H624        H  0.66137264  0.14773132  0.83416602     0.07300
C625        C  0.31026142  0.88136198  0.03840460    -0.22300
C626        C  0.28998983  0.89379266  0.05305605     0.09600
C627        C  0.26411650  0.89571824  0.04216618     0.10000
C628        C  0.25876068  0.88402098  0.01737150    -0.17300
C629        C  0.27856709  0.87000549  0.00335695    -0.27700
C630        C  0.30501241  0.86968001  0.01353470     0.18400
C631        C  0.29514842  0.90129707  0.08112838     0.12300
C632        C  0.24180359  0.90882611  0.05741052    -0.12000
H633        H  0.23853172  0.88440647  0.00970780     0.12600
C634        C  0.32822837  0.85748813  0.99882398    -0.22900
H635        H  0.33017210  0.88010874  0.04680466     0.08300
C636        C  0.29427783  0.88177006  0.10115736     0.04600
C637        C  0.29671434  0.88949121  0.12776588    -0.20100
C638        C  0.29986931  0.91643326  0.13530216    -0.12400
C639        C  0.30148367  0.93600083  0.11495798     0.13300
C640        C  0.29908552  0.92810179  0.08810555    -0.22800
C641        C  0.28995318  0.85273542  0.09451465    -0.05900
H642        H  0.29539951  0.87413081  0.14283220     0.14800
C643        C  0.30582539  0.96507338  0.12110786    -0.16100
H644        H  0.29975188  0.94293165  0.07246082     0.09200
H645        H  0.33568123  0.83982311  0.00986869     0.07000
H646        H  0.34458221  0.87233554  0.99735724     0.08200
H647        H  0.32324131  0.85153735  0.97819862     0.07300
H648        H  0.24685039  0.93001488  0.06132344     0.02100
H649        H  0.23878933  0.89839350  0.07663479     0.02600
H650        H  0.22268437  0.90826469  0.04621890     0.06100
H651        H  0.28927273  0.84012119  0.11263770     0.05100
H652        H  0.30649458  0.84536176  0.08182461    -0.00700
H653        H  0.27075002  0.85026529  0.08374318     0.00800
H654        H  0.30781004  0.97713055  0.10270421     0.04500
H655        H  0.32443616  0.96756627  0.13286638     0.06400
H656        H  0.28858438  0.97310373  0.13239366     0.07300
C657        C  0.57467743  0.91503588  0.81264590    -0.22300
C658        C  0.60018606  0.92215396  0.80374136     0.09600
C659        C  0.61968125  0.90224449  0.79977901     0.10000
C660        C  0.61300489  0.87550861  0.80412290    -0.17300
C661        C  0.58720183  0.86814199  0.81201715    -0.27700
C662        C  0.56793718  0.88819587  0.81698795     0.18400
C663        C  0.60629365  0.95040234  0.79792655     0.12300
C664        C  0.64728337  0.90915454  0.79011033    -0.12000
H665        H  0.62770176  0.86012979  0.80015582     0.12600
C666        C  0.54044178  0.88208158  0.82738625    -0.22900
H667        H  0.55991626  0.93048411  0.81603517     0.08300
C668        C  0.60038683  0.96169165  0.77291540     0.04600
C669        C  0.61068850  0.98689814  0.76653621    -0.20100
C670        C  0.62689854  0.00089312  0.78459110    -0.12400
C671        C  0.63076020  0.99047304  0.81052972     0.13300
C672        C  0.62071655  0.96516555  0.81669294    -0.22800
C673        C  0.58438075  0.94653110  0.75252930    -0.05900
H674        H  0.60756869  0.99485002  0.74673413     0.14800
C675        C  0.64529512  0.00539742  0.83220560    -0.16100
H676        H  0.62477930  0.95655310  0.83605675     0.09200
H677        H  0.52523988  0.88847966  0.81262597     0.07000
H678        H  0.53714568  0.89316118  0.84624107     0.08200
H679        H  0.53746911  0.86063742  0.83171047     0.07300
H680        H  0.65728166  0.92247009  0.80468312     0.02100
H681        H  0.64595852  0.91942895  0.77060287     0.02600
H682        H  0.65990258  0.89111553  0.78756469     0.06100
H683        H  0.58181159  0.95811257  0.73388678     0.05100
H684        H  0.56427607  0.94206373  0.76060267    -0.00700
H685        H  0.59463941  0.92754351  0.74754429     0.00800
H686        H  0.63258146  0.00627679  0.85025508     0.04500
H687        H  0.64984851  0.02628053  0.82676862     0.06400
H688        H  0.66414587  0.99486629  0.83719166     0.07300
C689        C  0.43620024  0.81323002  0.85398776    -0.22300
C690        C  0.43458531  0.81113652  0.88168368     0.09600
C691        C  0.45749833  0.80323765  0.89613712     0.10000
C692        C  0.48105248  0.79652172  0.88231860    -0.17300
C693        C  0.48249951  0.79816337  0.85441609    -0.27700
C694        C  0.45970800  0.80725051  0.84015068     0.18400
C695        C  0.40781587  0.81447344  0.89421408     0.12300
C696        C  0.45727857  0.80235237  0.92608262    -0.12000
H697        H  0.49847148  0.79001365  0.89335814     0.12600
C698        C  0.45840305  0.80996398  0.81028077    -0.22900
H699        H  0.41848363  0.81868198  0.84281737     0.08300
C700        C  0.39322334  0.83860441  0.89254071     0.04600
C701        C  0.36619654  0.83906281  0.90017080    -0.20100
C702        C  0.35346850  0.81610076  0.90976741    -0.12400
C703        C  0.36839788  0.79217595  0.91229126     0.13300
C704        C  0.39527937  0.79178318  0.90455328    -0.22800
C705        C  0.40608734  0.86389933  0.88277561    -0.05900
H706        H  0.35476705  0.85730941  0.89815451     0.14800
C707        C  0.35647082  0.76609234  0.92128860    -0.16100
H708        H  0.40614859  0.77308700  0.90517837     0.09200
H709        H  0.45534329  0.83124233  0.80502937     0.07000
H710        H  0.44117973  0.79836488  0.80256344     0.08200
H711        H  0.47623756  0.80269696  0.79970928     0.07300
H712        H  0.44273814  0.78734390  0.93319657     0.02100
H713        H  0.45172759  0.82225887  0.93404463     0.02600
H714        H  0.47716777  0.79695179  0.93424553     0.06100
H715        H  0.39217628  0.88111461  0.88392531     0.05100
H716        H  0.41232957  0.86177529  0.86174689    -0.00700
H717        H  0.42381924  0.86852142  0.89521366     0.00800
H718        H  0.35903324  0.75086389  0.90542875     0.04500
H719        H  0.33494101  0.76727187  0.92573596     0.06400
H720        H  0.36693831  0.75915749  0.93949241     0.07300
C721        C  0.31122299  0.25566272  0.00907064    -0.22300
C722        C  0.31820597  0.27065776  0.03159461     0.09600
C723        C  0.30882790  0.29708939  0.03408764     0.10000
C724        C  0.29214331  0.30772258  0.01429196    -0.17300
C725        C  0.28465400  0.29262099  0.99194053    -0.27700
C726        C  0.29483169  0.26640036  0.98899934     0.18400
C727        C  0.33583316  0.25870283  0.05218873     0.12300
C728        C  0.31644435  0.31406325  0.05766943    -0.12000
H729        H  0.28455653  0.32786336  0.01646443     0.12600
C730        C  0.28987108  0.24961142  0.96457740    -0.22900
H731        H  0.31892809  0.23556484  0.00696615     0.08300
C732        C  0.32531705  0.24557900  0.07463005     0.04600
C733        C  0.34262945  0.23726628  0.09505307    -0.20100
C734        C  0.37028624  0.24193858  0.09368474    -0.12400
C735        C  0.38090451  0.25331940  0.07012000     0.13300
C736        C  0.36349469  0.26184739  0.04989712    -0.22800
C737        C  0.29572372  0.24122740  0.07741864    -0.05900
H738        H  0.33424968  0.22869500  0.11295901     0.14800
C739        C  0.41041123  0.25673370  0.06546765    -0.16100
H740        H  0.37154454  0.27146513  0.03235919     0.09200
H741        H  0.27883302  0.23130047  0.97021469     0.07000
H742        H  0.30928634  0.24376185  0.95567653     0.08200
H743        H  0.27842191  0.26012964  0.94892575     0.07300
H744        H  0.33846103  0.31636451  0.05846583     0.02100
H745        H  0.30952217  0.30452746  0.07631945     0.02600
H746        H  0.30741448  0.33426435  0.05653399     0.06100
H747        H  0.29076130  0.23074370  0.09620899     0.05100
H748        H  0.28836017  0.22895334  0.06054611    -0.00700
H749        H  0.28514689  0.26067828  0.07739744     0.00800
H750        H  0.41585994  0.24757650  0.04609570     0.04500
H751        H  0.42284509  0.24680544  0.08076512     0.06400
H752        H  0.41539086  0.27829139  0.06487973     0.07300
C753        C  0.12873649  0.85260878  0.20354818    -0.22300
C754        C  0.15517593  0.85198236  0.19458770     0.09600
C755        C  0.16372593  0.83129059  0.17754507     0.10000
C756        C  0.14583526  0.81105630  0.17060030    -0.17300
C757        C  0.11961024  0.81112432  0.18017723    -0.27700
C758        C  0.11073276  0.83231357  0.19657141     0.18400
C759        C  0.17468005  0.87140889  0.20501485     0.12300
C760        C  0.19193958  0.83024841  0.16719064    -0.12000
H761        H  0.15247114  0.79476661  0.15802569     0.12600
C762        C  0.08301414  0.83349332  0.20811871    -0.22900
H763        H  0.12240277  0.86848697  0.21677126     0.08300
C764        C  0.18111979  0.89475428  0.19093209     0.04600
C765        C  0.20454247  0.90860972  0.19752506    -0.20100
C766        C  0.22175946  0.89924065  0.21760450    -0.12400
C767        C  0.21351027  0.87747479  0.23361679     0.13300
C768        C  0.18996247  0.86391220  0.22708134    -0.22800
C769        C  0.16394799  0.90418168  0.16820504    -0.05900
H770        H  0.21038309  0.92559987  0.18559170     0.14800
C771        C  0.22948932  0.86796583  0.25726271    -0.16100
H772        H  0.18442997  0.84617214  0.23806381     0.09200
H773        H  0.07283744  0.85188511  0.20116819     0.07000
H774        H  0.08430112  0.83398326  0.23016513     0.08200
H775        H  0.07048643  0.81620120  0.20253654     0.07300
H776        H  0.20620836  0.82885076  0.18404283     0.02100
H777        H  0.19626751  0.84852330  0.15555429     0.02600
H778        H  0.19521782  0.81274695  0.15402933     0.06100
H779        H  0.17179177  0.92282673  0.15927162     0.05100
H780        H  0.14341818  0.90813917  0.17549301    -0.00700
H781        H  0.16314796  0.88869867  0.15242560     0.00800
H782        H  0.21842541  0.85278595  0.26891950     0.04500
H783        H  0.23385223  0.88500294  0.27070666     0.06400
H784        H  0.24838095  0.85851058  0.25072178     0.07300
C785        C  0.12383708  0.77379115  0.05405724    -0.22300
C786        C  0.14270900  0.75444492  0.04692477     0.09600
C787        C  0.14311742  0.72986498  0.06060738     0.10000
C788        C  0.12544250  0.72575391  0.08193231    -0.17300
C789        C  0.10710983  0.74550939  0.08971733    -0.27700
C790        C  0.10591167  0.76964316  0.07505849     0.18400
C791        C  0.16324693  0.76164598  0.02682393     0.12300
C792        C  0.16227078  0.70805013  0.05284500    -0.12000
H793        H  0.12647696  0.70732182  0.09311263     0.12600
C794        C  0.08706973  0.79193862  0.08240524    -0.22900
H795        H  0.12389196  0.79277290  0.04377776     0.08300
C796        C  0.15657541  0.76682510  0.00000526     0.04600
C797        C  0.17616507  0.77690578  0.98275889    -0.20100
C798        C  0.20230550  0.78183552  0.99160813    -0.12400
C799        C  0.20912126  0.77608983  0.01835763     0.13300
C800        C  0.18950773  0.76600686  0.03550981    -0.22800
C801        C  0.12884848  0.76172578  0.98954141    -0.05900
H802        H  0.17094731  0.78142869  0.96231538     0.14800
C803        C  0.23624715  0.78178930  0.03012406    -0.16100
H804        H  0.19447623  0.76262798  0.05623799     0.09200
H805        H  0.08963218  0.80960545  0.06936536     0.07000
H806        H  0.09080468  0.79841782  0.10320712     0.08200
H807        H  0.06611605  0.78511894  0.08025091     0.07300
H808        H  0.18315225  0.71473937  0.05577477     0.02100
H809        H  0.15918754  0.70271104  0.03162149     0.02600
H810        H  0.15928334  0.68981078  0.06497449     0.06100
H811        H  0.12739134  0.76583117  0.96788418     0.05100
H812        H  0.11421143  0.77474205  0.99978997    -0.00700
H813        H  0.12343091  0.74053614  0.99286971     0.00800
H814        H  0.23406501  0.79562262  0.04725571     0.04500
H815        H  0.25028031  0.79117122  0.01601684     0.06400
H816        H  0.24529543  0.76289723  0.03728859     0.07300
C817        C  0.21717002  0.40665566  0.03842068    -0.22300
C818        C  0.19377157  0.39840079  0.05123248     0.09600
C819        C  0.17624029  0.38085123  0.03800647     0.10000
C820        C  0.18320384  0.37077708  0.01287970    -0.17300
C821        C  0.20753958  0.37747821  0.00063492    -0.27700
C822        C  0.22441192  0.39635313  0.01336450     0.18400
C823        C  0.18982294  0.40523829  0.07975995     0.12300
C824        C  0.15079921  0.37169920  0.05102413    -0.12000
H825        H  0.17004483  0.35657472  0.00326521     0.12600
C826        C  0.25085909  0.40447507  0.00169807    -0.22900
H827        H  0.23054652  0.42010374  0.04879253     0.08300
C828        C  0.20300465  0.39055739  0.09978140     0.04600
C829        C  0.19793040  0.39635069  0.12658004    -0.20100
C830        C  0.17986215  0.41641819  0.13411449    -0.12400
C831        C  0.16624873  0.43082449  0.11400540     0.13300
C832        C  0.17167608  0.42528031  0.08705906    -0.22800
C833        C  0.22224233  0.36848545  0.09287573    -0.05900
H834        H  0.20845729  0.38526872  0.14185333     0.14800
C835        C  0.14494640  0.45099037  0.12014959    -0.16100
H836        H  0.16114461  0.43614076  0.07164199     0.09200
H837        H  0.26167658  0.41869190  0.01479368     0.07000
H838        H  0.24765375  0.41444647  0.98226014     0.08200
H839        H  0.26374944  0.38665202  0.99902307     0.07300
H840        H  0.13780711  0.38915094  0.05515686     0.02100
H841        H  0.15545649  0.36138614  0.07000242     0.02600
H842        H  0.13951387  0.35764617  0.03815312     0.06100
H843        H  0.23047044  0.35872433  0.11093533     0.05100
H844        H  0.23921664  0.37663596  0.08131974    -0.00700
H845        H  0.21189980  0.35304404  0.08084115     0.00800
H846        H  0.15145741  0.47104193  0.11348391     0.04500
H847        H  0.14020406  0.45168561  0.14157909     0.06400
H848        H  0.12626518  0.44555778  0.10954327     0.07300
C849        C  0.10734104  0.54505652  0.17949881    -0.22300
C850        C  0.10010434  0.56261375  0.19989220     0.09600
C851        C  0.10207719  0.55435030  0.22665090     0.10000
C852        C  0.11266131  0.52905199  0.23244163    -0.17300
C853        C  0.12173549  0.51216694  0.21205339    -0.27700
C854        C  0.11823930  0.51996404  0.18524719     0.18400
C855        C  0.09303168  0.59037995  0.19282851     0.12300
C856        C  0.09413958  0.57269360  0.24903632    -0.12000
H857        H  0.11530446  0.52308430  0.25299456     0.12600
C858        C  0.12559482  0.50176379  0.16264593    -0.22900
H859        H  0.10538805  0.55147596  0.15900512     0.08300
C860        C  0.11307377  0.60916896  0.18699762     0.04600
C861        C  0.10586699  0.63557641  0.18149413    -0.20100
C862        C  0.07908440  0.64394148  0.18226085    -0.12400
C863        C  0.05889007  0.62476301  0.18738686     0.13300
C864        C  0.06619939  0.59815748  0.19241858    -0.22800
C865        C  0.14218489  0.60155982  0.18752995    -0.05900
H866        H  0.12147054  0.65004983  0.17783162     0.14800
C867        C  0.02965772  0.63192089  0.18743403    -0.16100
H868        H  0.05098357  0.58342554  0.19664947     0.09200
H869        H  0.14739127  0.49795916  0.16256560     0.07000
H870        H  0.12023341  0.51046617  0.14304751     0.08200
H871        H  0.11458827  0.48271413  0.16485364     0.07300
H872        H  0.07268116  0.57789329  0.24720069     0.02100
H873        H  0.10621488  0.59122496  0.24824604     0.02600
H874        H  0.09730836  0.56328460  0.26877580     0.06100
H875        H  0.15529444  0.61882354  0.18308888     0.05100
H876        H  0.14615232  0.58588510  0.17244242    -0.00700
H877        H  0.14758166  0.59389465  0.20754041     0.00800
H878        H  0.01684728  0.61398768  0.18951582     0.04500
H879        H  0.02427319  0.64186496  0.16844583     0.06400
H880        H  0.02505779  0.64525750  0.20443764     0.07300
C881        C  0.29019520  0.36561067  0.22376671    -0.22300
C882        C  0.30378294  0.37089800  0.20002292     0.09600
C883        C  0.29515246  0.39196825  0.18353528     0.10000
C884        C  0.27191741  0.40604468  0.19028873    -0.17300
C885        C  0.25718421  0.39942208  0.21309053    -0.27700
C886        C  0.26734935  0.38001817  0.23085687     0.18400
C887        C  0.32498731  0.35216079  0.19163523     0.12300
C888        C  0.31008064  0.39920338  0.15858072    -0.12000
H889        H  0.26431439  0.42108708  0.17678774     0.12600
C890        C  0.25469253  0.37397816  0.25737901    -0.22900
H891        H  0.29705061  0.34959513  0.23654524     0.08300
C892        C  0.34951433  0.35012215  0.20534880     0.04600
C893        C  0.36735664  0.32962184  0.19854534    -0.20100
C894        C  0.36102818  0.31121105  0.17847798    -0.12400
C895        C  0.33714988  0.31419837  0.16377401     0.13300
C896        C  0.31929874  0.33450870  0.17074447    -0.22800
C897        C  0.35683321  0.36952845  0.22705249    -0.05900
H898        H  0.38588296  0.32740244  0.20949068     0.14800
C899        C  0.33062829  0.29634494  0.14044891    -0.16100
H900        H  0.30044250  0.33624831  0.16027562     0.09200
H901        H  0.26998629  0.37565756  0.27330564     0.07000
H902        H  0.24668435  0.35334754  0.25728713     0.08200
H903        H  0.23845247  0.38803329  0.26263045     0.07300
H904        H  0.30987981  0.38229121  0.14434859     0.02100
H905        H  0.33105163  0.40422967  0.16366029     0.02600
H906        H  0.30102065  0.41669384  0.14847320     0.06100
H907        H  0.37709423  0.36552801  0.23510895     0.05100
H908        H  0.34246683  0.36806643  0.24373599    -0.00700
H909        H  0.35653947  0.39014008  0.21903232     0.00800
H910        H  0.31191905  0.30258093  0.13033348     0.04500
H911        H  0.32790627  0.27547812  0.14716226     0.06400
H912        H  0.34702111  0.29716620  0.12563308     0.07300
C913        C  0.89943329  0.69129167  0.07248894    -0.22300
C914        C  0.90621413  0.68663718  0.09907992     0.09600
C915        C  0.88697854  0.67614433  0.11654166     0.10000
C916        C  0.86071227  0.67260446  0.10756544    -0.17300
C917        C  0.85295157  0.67976282  0.08156341    -0.27700
C918        C  0.87310629  0.68785517  0.06334831     0.18400
C919        C  0.93222013  0.69635216  0.10920386     0.12300
C920        C  0.89392438  0.66977325  0.14501748    -0.12000
H921        H  0.84587551  0.66572194  0.12160311     0.12600
C922        C  0.86734807  0.69336310  0.03442012    -0.22900
H923        H  0.91457195  0.69893827  0.05915676     0.08300
C924        C  0.95521490  0.68015903  0.10984883     0.04600
C925        C  0.97865872  0.69007913  0.12165033    -0.20100
C926        C  0.97957041  0.71591022  0.13247028    -0.12400
C927        C  0.95648238  0.73221130  0.13149617     0.13300
C928        C  0.93323339  0.72225108  0.11961487    -0.22800
C929        C  0.95487324  0.65245769  0.09831350    -0.05900
H930        H  0.99628439  0.67756664  0.12268178     0.14800
C931        C  0.95497744  0.75957704  0.14397862    -0.16100
H932        H  0.91538646  0.73450832  0.11923929     0.09200
H933        H  0.88594623  0.69695818  0.02298730     0.07000
H934        H  0.85482974  0.71149093  0.03235906     0.08200
H935        H  0.85713111  0.67594459  0.02532517     0.07300
H936        H  0.90075856  0.68808018  0.15541284     0.02100
H937        H  0.91007771  0.65463718  0.14560928     0.02600
H938        H  0.87653483  0.66169663  0.15603473     0.06100
H939        H  0.97455249  0.64246671  0.10041751     0.05100
H940        H  0.94984804  0.65343339  0.07682153    -0.00700
H941        H  0.93972723  0.64014719  0.10865430     0.00800
H942        H  0.95047604  0.77459076  0.12839550     0.04500
H943        H  0.97351994  0.76566294  0.15427071     0.06400
H944        H  0.93873184  0.75994070  0.15897389     0.07300
C945        C  0.69049772  0.74012774  0.95236484    -0.22300
C946        C  0.66539693  0.74739025  0.96225409     0.09600
C947        C  0.65984384  0.74386662  0.98949192     0.10000
C948        C  0.67917238  0.73207552  0.00601262    -0.17300
C949        C  0.70396032  0.72361850  0.99593739    -0.27700
C950        C  0.70981635  0.72808073  0.96865967     0.18400
C951        C  0.64433588  0.75498354  0.94286278     0.12300
C952        C  0.63345994  0.75237177  0.00101534    -0.12000
H953        H  0.67470839  0.72895814  0.02687342     0.12600
C954        C  0.73520415  0.71904548  0.95524702    -0.22900
H955        H  0.69452229  0.74256390  0.93131228     0.08300
C956        C  0.64435741  0.77974620  0.92964523     0.04600
C957        C  0.62664356  0.78392509  0.90830379    -0.20100
C958        C  0.60915690  0.76375044  0.89956859    -0.12400
C959        C  0.60880734  0.73907951  0.91346399     0.13300
C960        C  0.62600075  0.73538742  0.93519840    -0.22800
C961        C  0.66341457  0.80148874  0.93774969    -0.05900
H962        H  0.62725165  0.80266714  0.89760762     0.14800
C963        C  0.59261417  0.71512689  0.90502499    -0.16100
H964        H  0.62639251  0.71622643  0.94518641     0.09200
H965        H  0.74606745  0.73668590  0.94752747     0.07000
H966        H  0.73016088  0.70579798  0.93824387     0.08200
H967        H  0.74887735  0.70770203  0.96822103     0.07300
H968        H  0.61698388  0.74110353  0.99145062     0.02100
H969        H  0.63043857  0.77402351  0.99753969     0.02600
H970        H  0.63254106  0.74870774  0.02277656     0.06100
H971        H  0.66057100  0.81977370  0.92563419     0.05100
H972        H  0.68430819  0.79464103  0.93511781    -0.00700
H973        H  0.66012584  0.80673318  0.95895687     0.00800
H974        H  0.60621463  0.69797354  0.90154496     0.04500
H975        H  0.58109855  0.71783399  0.88653272     0.06400
H976        H  0.57849068  0.70977953  0.92114392     0.07300
C977        C  0.03798654  0.28628420  0.89746190    -0.22300
C978        C  0.05060899  0.30997507  0.88985981     0.09600
C979        C  0.03731652  0.32777272  0.87268260     0.10000
C980        C  0.01229604  0.32074154  0.86224595    -0.17300
C981        C  0.00043028  0.29600096  0.86807010    -0.27700
C982        C  0.01311121  0.27893550  0.88674008     0.18400
C983        C  0.07942997  0.31309292  0.89581407     0.12300
C984        C  0.05014850  0.35358374  0.86434568    -0.12000
H985        H  0.00260241  0.33407854  0.84829722     0.12600
C986        C  0.00172176  0.25213768  0.89407858    -0.22900
H987        H  0.04851205  0.27266451  0.91052051     0.08300
C988        C  0.08906392  0.32522856  0.91923670     0.04600
C989        C  0.11681974  0.32676339  0.92359358    -0.20100
C990        C  0.13510890  0.31645913  0.90495386    -0.12400
C991        C  0.12507739  0.30396058  0.88155975     0.13300
C992        C  0.09747056  0.30262231  0.87738288    -0.22800
C993        C  0.07005144  0.33636708  0.93955350    -0.05900
H994        H  0.12425164  0.33610265  0.94158943     0.14800
C995        C  0.14301884  0.29089602  0.86123362    -0.16100
H996        H  0.08975074  0.29305064  0.85960727     0.09200
H997        H  0.01480339  0.24125186  0.90824343     0.07000
H998        H  0.99954695  0.23958353  0.87599149     0.08200
H999        H  0.98201878  0.25479132  0.90377911     0.07300
H1000       H  0.06914880  0.34945785  0.85378913     0.02100
H1001       H  0.05433275  0.36600099  0.88215445     0.02600
H1002       H  0.03706226  0.36521569  0.85079127     0.06100
H1003       H  0.08080231  0.34517135  0.95678630     0.05100
H1004       H  0.05689651  0.32024294  0.94702064    -0.00700
H1005       H  0.05757320  0.35217718  0.93037932     0.00800
H1006       H  0.15600722  0.27587254  0.87104848     0.04500
H1007       H  0.15539185  0.30614191  0.85112770     0.06400
H1008       H  0.13143910  0.28042337  0.84552351     0.07300
C1009       C  0.80606049  0.11598764  0.79956017    -0.22300
C1010       C  0.81151566  0.13952467  0.78567951     0.09600
C1011       C  0.79405052  0.14802915  0.76539131     0.10000
C1012       C  0.77049266  0.13377008  0.76068583    -0.17300
C1013       C  0.76366781  0.11138514  0.77606121    -0.27700
C1014       C  0.78229850  0.10177353  0.79514680     0.18400
C1015       C  0.83289079  0.15736079  0.79547995     0.12300
C1016       C  0.79952714  0.17303259  0.74972251    -0.12000
H1017       H  0.75668555  0.14096640  0.74569673     0.12600
C1018       C  0.77681070  0.07766802  0.81215821    -0.22900
H1019       H  0.81971601  0.10967875  0.81507614     0.08300
C1020       C  0.82824863  0.17398564  0.81766727     0.04600
C1021       C  0.84699064  0.19354969  0.82423737    -0.20100
C1022       C  0.87010474  0.19715917  0.80900817    -0.12400
C1023       C  0.87519687  0.18005636  0.78717372     0.13300
C1024       C  0.85656311  0.16007596  0.78087644    -0.22800
C1025       C  0.80290165  0.17198454  0.83367333    -0.05900
H1026       H  0.84313481  0.20682012  0.84084404     0.14800
C1027       C  0.89897443  0.18329369  0.76914186    -0.16100
H1028       H  0.85984193  0.14744173  0.76367992     0.09200
H1029       H  0.79334997  0.07366373  0.82634438     0.07000
H1030       H  0.77457709  0.05974415  0.79937334     0.08200
H1031       H  0.75838525  0.08085955  0.82398494     0.07300
H1032       H  0.81865609  0.17092256  0.73882653     0.02100
H1033       H  0.80079439  0.19041750  0.76336686     0.02600
H1034       H  0.78356111  0.17710808  0.73492330     0.06100
H1035       H  0.80225178  0.18698613  0.84993628     0.05100
H1036       H  0.80141967  0.15192073  0.84281638    -0.00700
H1037       H  0.78536107  0.17536709  0.82057640     0.00800
H1038       H  0.91119782  0.16482811  0.76956871     0.04500
H1039       H  0.91195716  0.20024173  0.77474866     0.06400
H1040       H  0.89200711  0.18675253  0.74845245     0.07300
C1041       C  0.83673443  0.28099241  0.92900360    -0.22300
C1042       C  0.83343130  0.25490908  0.93842963     0.09600
C1043       C  0.84882968  0.23412803  0.92741152     0.10000
C1044       C  0.86672896  0.23972999  0.90678428    -0.17300
C1045       C  0.86941060  0.26559886  0.89630551    -0.27700
C1046       C  0.85441374  0.28662876  0.90794175     0.18400
C1047       C  0.81275889  0.24903698  0.95874190     0.12300
C1048       C  0.84594581  0.20582999  0.93707013    -0.12000
H1049       H  0.87785969  0.22341541  0.89800014     0.12600
C1050       C  0.85687024  0.31497059  0.89843975    -0.22900
H1051       H  0.82488966  0.29684708  0.93769413     0.08300
C1052       C  0.81854652  0.24957874  0.98619099     0.04600
C1053       C  0.79978150  0.23945537  0.00431842    -0.20100
C1054       C  0.77540389  0.22861040  0.99561599    -0.12400
C1055       C  0.76942897  0.22867229  0.96799091     0.13300
C1056       C  0.78799726  0.23939160  0.95007368    -0.22800
C1057       C  0.84485508  0.26005441  0.99620484    -0.05900
H1058       H  0.80448974  0.23928220  0.02536315     0.14800
C1059       C  0.74485700  0.21586276  0.95617349    -0.16100
H1060       H  0.78383763  0.23865291  0.92890437     0.09200
H1061       H  0.84528257  0.32895574  0.91110480     0.07000
H1062       H  0.84896345  0.31667189  0.87790427     0.08200
H1063       H  0.87810260  0.32125914  0.89898348     0.07300
H1064       H  0.82519587  0.19882920  0.93376993     0.02100
H1065       H  0.85067396  0.20481543  0.95862308     0.02600
H1066       H  0.85958309  0.19200030  0.92643112     0.06100
H1067       H  0.84627085  0.25897461  0.01822889     0.05100
H1068       H  0.84718769  0.28121071  0.99018934    -0.00700
H1069       H  0.86146011  0.24815377  0.98766882     0.00800
H1070       H  0.73274609  0.23124241  0.94583989     0.04500
H1071       H  0.73203051  0.20573881  0.97085987     0.06400
H1072       H  0.75096231  0.20050439  0.94144044     0.07300
C1073       C  0.81806612  0.61904229  0.89212030    -0.22300
C1074       C  0.80197505  0.60209009  0.90724930     0.09600
C1075       C  0.79167037  0.57871344  0.89555673     0.10000
C1076       C  0.79600078  0.57390189  0.86838925    -0.17300
C1077       C  0.81036639  0.59197335  0.85242494    -0.27700
C1078       C  0.82272787  0.61426728  0.86499835     0.18400
C1079       C  0.79355602  0.61113076  0.93407398     0.12300
C1080       C  0.77587162  0.55897771  0.91168806    -0.12000
H1081       H  0.78710525  0.55636726  0.85943797     0.12600
C1082       C  0.84027916  0.63373348  0.85030834    -0.22900
H1083       H  0.82599599  0.63691168  0.90136277     0.08300
C1084       C  0.81164708  0.61345691  0.95550635     0.04600
C1085       C  0.80316874  0.62558111  0.97928026    -0.20100
C1086       C  0.77684059  0.63475154  0.98227535    -0.12400
C1087       C  0.75844660  0.63127292  0.96115240     0.13300
C1088       C  0.76716810  0.61983185  0.93724574    -0.22800
C1089       C  0.83976453  0.60306653  0.95332907    -0.05900
H1090       H  0.81720561  0.62822238  0.99549418     0.14800
C1091       C  0.72992968  0.64070775  0.96314745    -0.16100
H1092       H  0.75348262  0.61827911  0.92058917     0.09200
H1093       H  0.85700575  0.62292700  0.84062301     0.07000
H1094       H  0.84918016  0.64879778  0.86388963     0.08200
H1095       H  0.82843325  0.64480049  0.83526924     0.07300
H1096       H  0.75735247  0.56836917  0.91930301     0.02100
H1097       H  0.78810824  0.55196069  0.92873258     0.02600
H1098       H  0.77003221  0.54131164  0.89967917     0.06100
H1099       H  0.85097291  0.60569044  0.97222886     0.05100
H1100       H  0.85069031  0.61384378  0.93749058    -0.00700
H1101       H  0.83933401  0.58146008  0.94849689     0.00800
H1102       H  0.71883213  0.63763595  0.94424727     0.04500
H1103       H  0.72936479  0.66228186  0.96793275     0.06400
H1104       H  0.71940816  0.62942531  0.97892414     0.07300
C1105       C  0.88012375  0.47016175  0.81206840    -0.22300
C1106       C  0.88346621  0.44955118  0.79349635     0.09600
C1107       C  0.87485728  0.45326107  0.76698703     0.10000
C1108       C  0.86338436  0.47765626  0.75959857    -0.17300
C1109       C  0.85920752  0.49800967  0.77830356    -0.27700
C1110       C  0.86808289  0.49441258  0.80483443     0.18400
C1111       C  0.89282690  0.42309171  0.80268423     0.12300
C1112       C  0.87613072  0.43092315  0.74688600    -0.12000
H1113       H  0.85618706  0.48028972  0.73941801     0.12600
C1114       C  0.86544023  0.51566510  0.82591903    -0.22900
H1115       H  0.88645029  0.46708399  0.83246955     0.08300
C1116       C  0.91863743  0.41345721  0.79710122     0.04600
C1117       C  0.92446428  0.38639868  0.80157387    -0.20100
C1118       C  0.90514982  0.36882412  0.81191407    -0.12400
C1119       C  0.88015170  0.37954024  0.82012337     0.13300
C1120       C  0.87438112  0.40645263  0.81519415    -0.22800
C1121       C  0.93994386  0.43172618  0.78647717    -0.05900
H1122       H  0.94390190  0.37880685  0.79595466     0.14800
C1123       C  0.85921901  0.36310354  0.83403293    -0.16100
H1124       H  0.85484220  0.41435377  0.82007700     0.09200
H1125       H  0.88540562  0.52004029  0.83447687     0.07000
H1126       H  0.85217422  0.50844486  0.84203410     0.08200
H1127       H  0.85734532  0.53470055  0.81819513     0.07300
H1128       H  0.86441004  0.41362948  0.75412720     0.02100
H1129       H  0.89706140  0.42458261  0.74367593     0.02600
H1130       H  0.86778705  0.43702681  0.72733784     0.06100
H1131       H  0.95910847  0.42103137  0.78338893     0.05100
H1132       H  0.94346840  0.44814262  0.80089551    -0.00700
H1133       H  0.93374388  0.44044933  0.76719277     0.00800
H1134       H  0.84242720  0.37559813  0.84131282     0.04500
H1135       H  0.86822483  0.35308415  0.85154324     0.06400
H1136       H  0.85055995  0.34816813  0.82021785     0.07300
C1137       C  0.66803752  0.68067511  0.80964624    -0.22300
C1138       C  0.65910428  0.66018975  0.79295314     0.09600
C1139       C  0.63205615  0.65929636  0.78518271     0.10000
C1140       C  0.61458161  0.67951653  0.79387865    -0.17300
C1141       C  0.62387196  0.70060850  0.80979998    -0.27700
C1142       C  0.65084457  0.70088025  0.81819085     0.18400
C1143       C  0.67920565  0.64068664  0.78361259     0.12300
C1144       C  0.62197557  0.63754408  0.76716236    -0.12000
H1145       H  0.59397744  0.67953713  0.78726813     0.12600
C1146       C  0.66226750  0.72215273  0.83615545    -0.22900
H1147       H  0.68881527  0.68111590  0.81573059     0.08300
C1148       C  0.69683049  0.64724888  0.76279706     0.04600
C1149       C  0.71976687  0.63173017  0.75886424    -0.20100
C1150       C  0.72561418  0.60995018  0.77540063    -0.12400
C1151       C  0.70706099  0.60239078  0.79522947     0.13300
C1152       C  0.68393349  0.61782070  0.79890725    -0.22800
C1153       C  0.69204604  0.67134995  0.74555240    -0.05900
H1154       H  0.73397678  0.63745433  0.74366907     0.14800
C1155       C  0.71178767  0.57961770  0.81420343    -0.16100
H1156       H  0.67043777  0.61305555  0.81504854     0.09200
H1157       H  0.67796580  0.73335887  0.82535372     0.07000
H1158       H  0.67133882  0.71265479  0.85394700     0.08200
H1159       H  0.64712444  0.73649596  0.84341760     0.07300
H1160       H  0.62508155  0.61785855  0.77674757     0.02100
H1161       H  0.63297640  0.63802785  0.74802330     0.02600
H1162       H  0.60035664  0.63986815  0.76282663     0.06100
H1163       H  0.70770525  0.67352615  0.73009932     0.05100
H1164       H  0.69205668  0.68970801  0.75790944    -0.00700
H1165       H  0.67246271  0.66947318  0.73537632     0.00800
H1166       H  0.71200041  0.58729625  0.83493368     0.04500
H1167       H  0.73088469  0.56908615  0.81084268     0.06400
H1168       H  0.69538484  0.56488632  0.81217793     0.07300
C1169       C  0.16275707  0.68341550  0.32086297    -0.22300
C1170       C  0.14356951  0.70204351  0.32892928     0.09600
C1171       C  0.14389445  0.71188579  0.35523025     0.10000
C1172       C  0.16462466  0.70405438  0.37244187    -0.17300
C1173       C  0.18464927  0.68647071  0.36380670    -0.27700
C1174       C  0.18311175  0.67521655  0.33805083     0.18400
C1175       C  0.12430381  0.71132883  0.30864760     0.12300
C1176       C  0.12250357  0.73054984  0.36500742    -0.12000
H1177       H  0.16568231  0.71227818  0.39235586     0.12600
C1178       C  0.20234425  0.65427425  0.32813812    -0.22900
H1179       H  0.16201606  0.67544297  0.30080428     0.08300
C1180       C  0.13040567  0.73325456  0.29219397     0.04600
C1181       C  0.11518512  0.73766174  0.26919146    -0.20100
C1182       C  0.09431590  0.72043600  0.26207736    -0.12400
C1183       C  0.08749587  0.69909109  0.27917239     0.13300
C1184       C  0.10247144  0.69502102  0.30243850    -0.22800
C1185       C  0.15397637  0.75100744  0.29799737    -0.05900
H1186       H  0.12048574  0.75381512  0.25590347     0.14800
C1187       C  0.06608263  0.67899260  0.27264786    -0.16100
H1188       H  0.09823186  0.67791015  0.31489007     0.09200
H1189       H  0.21345575  0.66208012  0.31073277     0.07000
H1190       H  0.19103494  0.63627338  0.32191552     0.08200
H1191       H  0.21695552  0.64784506  0.34340164     0.07300
H1192       H  0.10273970  0.72071022  0.36329766     0.02100
H1193       H  0.12234198  0.74905479  0.35297692     0.02600
H1194       H  0.12567806  0.73617282  0.38615772     0.06100
H1195       H  0.15613285  0.76694821  0.28284392     0.05100
H1196       H  0.17262351  0.73904021  0.29809378    -0.00700
H1197       H  0.15151437  0.76070960  0.31767039     0.00800
H1198       H  0.07508288  0.65878086  0.27144124     0.04500
H1199       H  0.05585188  0.68285878  0.25352307     0.06400
H1200       H  0.05081004  0.67908362  0.28861646     0.07300
C1201       C  0.22505824  0.50665654  0.33148378    -0.22300
C1202       C  0.23060251  0.53295763  0.32392260     0.09600
C1203       C  0.22741021  0.54051331  0.29702980     0.10000
C1204       C  0.21785721  0.52180034  0.27850737    -0.17300
C1205       C  0.21095106  0.49587852  0.28633713    -0.27700
C1206       C  0.21533077  0.48797575  0.31304236     0.18400
C1207       C  0.23759692  0.55289967  0.34467980     0.12300
C1208       C  0.23282594  0.56866670  0.28811602    -0.12000
H1209       H  0.21442076  0.52784891  0.25809278     0.12600
C1210       C  0.21023561  0.46001101  0.32272702    -0.22900
H1211       H  0.22783280  0.50081549  0.35205973     0.08300
C1212       C  0.21789532  0.56333819  0.36182768     0.04600
C1213       C  0.22437110  0.58454838  0.37883790    -0.20100
C1214       C  0.24984484  0.59619683  0.37859839    -0.12400
C1215       C  0.26997350  0.58486427  0.36237636     0.13300
C1216       C  0.26363945  0.56309426  0.34584136    -0.22800
C1217       C  0.18960917  0.55316000  0.36113188    -0.05900
H1218       H  0.20884298  0.59331770  0.39104047     0.14800
C1219       C  0.29804475  0.59560861  0.36234785    -0.16100
H1220       H  0.27875073  0.55470750  0.33288702     0.09200
H1221       H  0.19420066  0.46027429  0.33793427     0.07000
H1222       H  0.22872078  0.45189685  0.33186700     0.08200
H1223       H  0.20439707  0.44617516  0.30656116     0.07300
H1224       H  0.25412762  0.57366181  0.29148705     0.02100
H1225       H  0.22009652  0.58277405  0.29948590     0.02600
H1226       H  0.22849404  0.57139153  0.26661834     0.06100
H1227       H  0.17654787  0.56417729  0.37520032     0.05100
H1228       H  0.18918533  0.53178115  0.36673643    -0.00700
H1229       H  0.18122444  0.55554625  0.34081420     0.00800
H1230       H  0.31150852  0.58321716  0.34988092     0.04500
H1231       H  0.30607632  0.59574484  0.38294399     0.06400
H1232       H  0.29838728  0.61611747  0.35417235     0.07300
C1233       C  0.26970779  0.79924279  0.35155144    -0.22300
C1234       C  0.29007768  0.81585228  0.36096637     0.09600
C1235       C  0.30244743  0.81019084  0.38553516     0.10000
C1236       C  0.29572701  0.78660390  0.39905079    -0.17300
C1237       C  0.27678754  0.76881280  0.38850723    -0.27700
C1238       C  0.26251739  0.77605928  0.36524706     0.18400
C1239       C  0.29935518  0.83760088  0.34340786     0.12300
C1240       C  0.32304534  0.82873712  0.39709808    -0.12000
H1241       H  0.30636298  0.78133087  0.41708473     0.12600
C1242       C  0.23954032  0.75995459  0.35436434    -0.22900
H1243       H  0.25974596  0.80410407  0.33300765     0.08300
C1244       C  0.32009778  0.83309083  0.32498698     0.04600
C1245       C  0.32575723  0.85257507  0.30589216    -0.20100
C1246       C  0.31092254  0.87627670  0.30446843    -0.12400
C1247       C  0.29046717  0.88107068  0.32328532     0.13300
C1248       C  0.28512732  0.86167841  0.34271470    -0.22800
C1249       C  0.33539740  0.80717957  0.32461473    -0.05900
H1250       H  0.34119880  0.84885222  0.29125215     0.14800
C1251       C  0.27274577  0.90538633  0.32250434    -0.16100
H1252       H  0.26890136  0.86479279  0.35661822     0.09200
H1253       H  0.24500680  0.75148050  0.33469869     0.07000
H1254       H  0.22186044  0.77308793  0.35184806     0.08200
H1255       H  0.23339416  0.74357784  0.36776299     0.07300
H1256       H  0.31402025  0.84871194  0.40027756     0.02100
H1257       H  0.34020774  0.83069028  0.38334589     0.02600
H1258       H  0.33068165  0.82140982  0.41650989     0.06100
H1259       H  0.35071247  0.80686864  0.30866897     0.05100
H1260       H  0.32149177  0.79032073  0.32108225    -0.00700
H1261       H  0.34572736  0.80416681  0.34390082     0.00800
H1262       H  0.25163517  0.89908145  0.32016736     0.04500
H1263       H  0.27736151  0.91912334  0.30594278     0.06400
H1264       H  0.27479075  0.91661329  0.34144457     0.07300
C1265       C  0.39167587  0.68271332  0.37108175    -0.22300
C1266       C  0.40922457  0.69190675  0.39068917     0.09600
C1267       C  0.39967365  0.69606813  0.41674002     0.10000
C1268       C  0.37242127  0.69211478  0.42224313    -0.17300
C1269       C  0.35424866  0.68433702  0.40222956    -0.27700
C1270       C  0.36443250  0.67889175  0.37629709     0.18400
C1271       C  0.43625566  0.70059352  0.38217223     0.12300
C1272       C  0.41820199  0.70495289  0.43863911    -0.12000
H1273       H  0.36517139  0.69600877  0.44216433     0.12600
C1274       C  0.34694089  0.67035671  0.35334454    -0.22900
H1275       H  0.39918354  0.67984043  0.35106446     0.08300
C1276       C  0.45589043  0.68241015  0.37331224     0.04600
C1277       C  0.47926753  0.69216880  0.36126806    -0.20100
C1278       C  0.48350364  0.71967396  0.35814491    -0.12400
C1279       C  0.46410595  0.73784206  0.36774678     0.13300
C1280       C  0.44085965  0.72801961  0.37966862    -0.22800
C1281       C  0.45217681  0.65281168  0.37660802    -0.05900
H1282       H  0.49416757  0.67829701  0.35397002     0.14800
C1283       C  0.46629290  0.76765951  0.36449204    -0.16100
H1284       H  0.42554422  0.74194003  0.38599115     0.09200
H1285       H  0.35854374  0.66733839  0.33477426     0.07000
H1286       H  0.33174988  0.68593000  0.34915834     0.08200
H1287       H  0.33713541  0.65110516  0.35803603     0.07300
H1288       H  0.42681349  0.72473443  0.43385780     0.02100
H1289       H  0.43460595  0.69023163  0.44092426     0.02600
H1290       H  0.40768589  0.70667716  0.45799264     0.06100
H1291       H  0.46974368  0.64146664  0.36928382     0.05100
H1292       H  0.43442487  0.64602446  0.36527416    -0.00700
H1293       H  0.44938651  0.64808371  0.39799145     0.00800
H1294       H  0.44879464  0.77511741  0.35312767     0.04500
H1295       H  0.48438770  0.77406877  0.35371934     0.06400
H1296       H  0.46642324  0.77728717  0.38439129     0.07300
C1297       C  0.66035929  0.72906040  0.14443854    -0.22300
C1298       C  0.64592227  0.70889100  0.15717121     0.09600
C1299       C  0.64931540  0.68210555  0.14920337     0.10000
C1300       C  0.66852189  0.67590038  0.12984640    -0.17300
C1301       C  0.68465285  0.69589011  0.11885225    -0.27700
C1302       C  0.67984977  0.72285943  0.12542786     0.18400
C1303       C  0.63127966  0.71578896  0.18176720     0.12300
C1304       C  0.63356675  0.66006088  0.16204493    -0.12000
H1305       H  0.67210824  0.65525169  0.12451707     0.12600
C1306       C  0.69536921  0.74507592  0.11258563    -0.22900
H1307       H  0.65749572  0.74958306  0.15061170     0.08300
C1308       C  0.64492692  0.71661448  0.20626330     0.04600
C1309       C  0.63092975  0.72315742  0.22937853    -0.20100
C1310       C  0.60350857  0.72918739  0.22882274    -0.12400
C1311       C  0.59002856  0.72943895  0.20395454     0.13300
C1312       C  0.60407711  0.72227759  0.18075886    -0.22800
C1313       C  0.67431227  0.71026542  0.20808081    -0.05900
H1314       H  0.64146487  0.72277957  0.24822373     0.14800
C1315       C  0.56141658  0.73816220  0.20077899    -0.16100
H1316       H  0.59388399  0.72219498  0.16172255     0.09200
H1317       H  0.71680873  0.74360636  0.11791176     0.07000
H1318       H  0.68814738  0.76496322  0.11915174     0.08200
H1319       H  0.69314232  0.74388598  0.09063361     0.07300
H1320       H  0.61192049  0.66356668  0.15885529     0.02100
H1321       H  0.63773400  0.65953461  0.18373223     0.02600
H1322       H  0.63871896  0.64025318  0.15356426     0.06100
H1323       H  0.68182508  0.71167253  0.22883079     0.05100
H1324       H  0.68584582  0.72452545  0.19577212    -0.00700
H1325       H  0.67804139  0.68967869  0.20084691     0.00800
H1326       H  0.56027258  0.75424550  0.18565803     0.04500
H1327       H  0.55268296  0.74638975  0.21924028     0.06400
H1328       H  0.54913791  0.72106098  0.19393054     0.07300
C1329       C  0.47996367  0.82557393  0.23889839    -0.22300
C1330       C  0.45620333  0.83073139  0.25262706     0.09600
C1331       C  0.45151011  0.81835932  0.27736034     0.10000
C1332       C  0.47110731  0.80166250  0.28819807    -0.17300
C1333       C  0.49513881  0.79670129  0.27476230    -0.27700
C1334       C  0.49965084  0.80877862  0.24970920     0.18400
C1335       C  0.43667000  0.84985643  0.24150128     0.12300
C1336       C  0.42579024  0.82274263  0.29228969    -0.12000
H1337       H  0.46756339  0.79220008  0.30722725     0.12600
C1338       C  0.52526263  0.80547989  0.23436669    -0.22900
H1339       H  0.48343300  0.83522915  0.21994331     0.08300
C1340       C  0.43661008  0.87676579  0.24949480     0.04600
C1341       C  0.41489918  0.89304851  0.24268558    -0.20100
C1342       C  0.39300192  0.88300587  0.22821964    -0.12400
C1343       C  0.39455857  0.85652474  0.21795597     0.13300
C1344       C  0.41640176  0.84035303  0.22489363    -0.22800
C1345       C  0.45902303  0.88797338  0.26608621    -0.05900
H1346       H  0.41443388  0.91337026  0.25001936     0.14800
C1347       C  0.37300095  0.84439582  0.20080858    -0.16100
H1348       H  0.41701825  0.81970394  0.21850939     0.09200
H1349       H  0.53414466  0.82539242  0.23060372     0.07000
H1350       H  0.52100119  0.79573094  0.21497910     0.08200
H1351       H  0.54046457  0.79351468  0.24499114     0.07300
H1352       H  0.40867755  0.81607298  0.27991089     0.02100
H1353       H  0.42332852  0.84421006  0.29706828     0.02600
H1354       H  0.42534960  0.81141559  0.31125408     0.06100
H1355       H  0.45596307  0.90944380  0.27058571     0.05100
H1356       H  0.47815267  0.88584850  0.25517967    -0.00700
H1357       H  0.46045467  0.87708633  0.28523648     0.00800
H1358       H  0.37827899  0.82392639  0.19416765     0.04500
H1359       H  0.37003687  0.85668534  0.18268952     0.06400
H1360       H  0.35408509  0.84292014  0.21215571     0.07300
C1361       C  0.50844543  0.19190306  0.74750481    -0.22300
C1362       C  0.52978495  0.18283162  0.73186425     0.09600
C1363       C  0.53216630  0.19166987  0.70534974     0.10000
C1364       C  0.51304788  0.20918178  0.69496086    -0.17300
C1365       C  0.49162226  0.21833382  0.71042727    -0.27700
C1366       C  0.48915922  0.20948439  0.73707075     0.18400
C1367       C  0.54976522  0.16411154  0.74312776     0.12300
C1368       C  0.55508611  0.18279537  0.68805536    -0.12000
H1369       H  0.51493542  0.21597698  0.67457729     0.12600
C1370       C  0.46606738  0.21719367  0.75465657    -0.22900
H1371       H  0.50665004  0.18495672  0.76783424     0.08300
C1372       C  0.57239658  0.17350760  0.75686114     0.04600
C1373       C  0.59349120  0.15588180  0.76233751    -0.20100
C1374       C  0.59280543  0.12906236  0.75389581    -0.12400
C1375       C  0.56913162  0.11934453  0.74165361     0.13300
C1376       C  0.54790430  0.13701217  0.73665676    -0.22800
C1377       C  0.57477141  0.20244011  0.76458822    -0.05900
H1378       H  0.61129284  0.16362407  0.77184790     0.14800
C1379       C  0.56599244  0.09062303  0.73332372    -0.16100
H1380       H  0.53029751  0.12999719  0.72622035     0.09200
H1381       H  0.47363326  0.22810127  0.77235537     0.07000
H1382       H  0.45560704  0.19891203  0.76140404     0.08200
H1383       H  0.45113429  0.22991086  0.74451389     0.07300
H1384       H  0.55463464  0.16081148  0.68556525     0.02100
H1385       H  0.57429550  0.18867171  0.69740046     0.02600
H1386       H  0.55415615  0.19193672  0.66796720     0.06100
H1387       H  0.59386955  0.20662062  0.77502130     0.05100
H1388       H  0.55814318  0.20793201  0.77809652    -0.00700
H1389       H  0.57387043  0.21514299  0.74654090     0.00800
H1390       H  0.54538073  0.08631191  0.72639702     0.04500
H1391       H  0.57029861  0.07731296  0.75043085     0.06400
H1392       H  0.57957880  0.08594905  0.71655889     0.07300
C1393       C  0.35434049  0.28128585  0.79208333    -0.22300
C1394       C  0.36371307  0.30227596  0.80789482     0.09600
C1395       C  0.38793934  0.31488666  0.80124021     0.10000
C1396       C  0.40077544  0.30803385  0.77728029    -0.17300
C1397       C  0.39012115  0.28847396  0.76016194    -0.27700
C1398       C  0.36758889  0.27367587  0.76874907     0.18400
C1399       C  0.34621441  0.31196591  0.82964617     0.12300
C1400       C  0.39997440  0.33570884  0.81922486    -0.12000
H1401       H  0.41838795  0.31898648  0.77128396     0.12600
C1402       C  0.35694123  0.24966166  0.75406343    -0.22900
H1403       H  0.33616711  0.27105046  0.79775361     0.08300
C1404       C  0.32790597  0.33287325  0.82500829     0.04600
C1405       C  0.30843626  0.33860736  0.84415653    -0.20100
C1406       C  0.30635119  0.32363038  0.86761804    -0.12400
C1407       C  0.32500333  0.30297595  0.87256194     0.13300
C1408       C  0.34489630  0.29759999  0.85354959    -0.22800
C1409       C  0.32782799  0.34813363  0.79916983    -0.05900
H1410       H  0.29395238  0.35422305  0.84029427     0.14800
C1411       C  0.32352440  0.28507298  0.89658195    -0.16100
H1412       H  0.35860350  0.28117148  0.85675299     0.09200
H1413       H  0.33717365  0.25442988  0.74525785     0.07000
H1414       H  0.35453549  0.23284806  0.76820577     0.08200
H1415       H  0.37054515  0.24240513  0.73829206     0.07300
H1416       H  0.40405537  0.32682494  0.83903347     0.02100
H1417       H  0.38609641  0.35274844  0.82171875     0.02600
H1418       H  0.41905744  0.34347517  0.81115563     0.06100
H1419       H  0.31178362  0.36342645  0.79865705     0.05100
H1420       H  0.32453745  0.33421815  0.78228926    -0.00700
H1421       H  0.34714225  0.35849090  0.79638816     0.00800
H1422       H  0.32115885  0.26405990  0.88999767     0.04500
H1423       H  0.30661199  0.28977751  0.90991797     0.06400
H1424       H  0.34226883  0.28681919  0.90825228     0.07300
C1425       C  0.38406028  0.45479389  0.71576160    -0.22300
C1426       C  0.38446177  0.44875926  0.68852845     0.09600
C1427       C  0.37488491  0.46765912  0.67003057     0.10000
C1428       C  0.36411251  0.49177891  0.67934543    -0.17300
C1429       C  0.36319365  0.49753937  0.70664690    -0.27700
C1430       C  0.37380946  0.47906758  0.72507338     0.18400
C1431       C  0.39229130  0.42140152  0.68050051     0.12300
C1432       C  0.37602050  0.46242227  0.64054737    -0.12000
H1433       H  0.35598992  0.50603806  0.66532697     0.12600
C1434       C  0.37313625  0.48419203  0.75462875    -0.22900
H1435       H  0.39103677  0.44001147  0.72986423     0.08300
C1436       C  0.41846938  0.41172196  0.68396682     0.04600
C1437       C  0.42356803  0.38437040  0.68065623    -0.20100
C1438       C  0.40307995  0.36631635  0.67392231    -0.12400
C1439       C  0.37718955  0.37674870  0.66824122     0.13300
C1440       C  0.37223583  0.40401646  0.67198183    -0.22800
C1441       C  0.44097349  0.43023310  0.69131078    -0.05900
H1442       H  0.44356804  0.37700985  0.68434352     0.14800
C1443       C  0.35424152  0.35971645  0.65873209    -0.16100
H1444       H  0.35218218  0.41171644  0.66933095     0.09200
H1445       H  0.38548502  0.50189001  0.75950995     0.07000
H1446       H  0.38113810  0.46704160  0.76610686     0.08200
H1447       H  0.35231444  0.48773688  0.76117131     0.07300
H1448       H  0.36353192  0.44494171  0.63532164     0.02100
H1449       H  0.39697312  0.45848804  0.63455671     0.02600
H1450       H  0.36859651  0.47973052  0.62892488     0.06100
H1451       H  0.46037464  0.41956260  0.69236820     0.05100
H1452       H  0.43724445  0.43944871  0.71102109    -0.00700
H1453       H  0.44268414  0.44616662  0.67610286     0.00800
H1454       H  0.33635506  0.37184964  0.65378370     0.04500
H1455       H  0.34818132  0.34549813  0.67448447     0.06400
H1456       H  0.36010079  0.34885422  0.64040018     0.07300
C1457       C  0.30893416  0.63003651  0.59901358    -0.22300
C1458       C  0.30042386  0.60978211  0.58190427     0.09600
C1459       C  0.29854735  0.58346245  0.59137610     0.10000
C1460       C  0.30411178  0.57817993  0.61827864    -0.17300
C1461       C  0.31128239  0.59870310  0.63615398    -0.27700
C1462       C  0.31435632  0.62505636  0.62594833     0.18400
C1463       C  0.29219400  0.61729161  0.55459437     0.12300
C1464       C  0.29015284  0.56110684  0.57318561    -0.12000
H1465       H  0.30188434  0.55796419  0.62548709     0.12600
C1466       C  0.32277309  0.64844616  0.64293114    -0.22900
H1467       H  0.31048058  0.65016187  0.59131345     0.08300
C1468       C  0.26599096  0.62614620  0.54929664     0.04600
C1469       C  0.25974615  0.63615581  0.52400466    -0.20100
C1470       C  0.27919646  0.63799783  0.50400376    -0.12400
C1471       C  0.30516776  0.62801273  0.50899057     0.13300
C1472       C  0.31136032  0.61790374  0.53433106    -0.22800
C1473       C  0.24487422  0.62587985  0.57061398    -0.05900
H1474       H  0.23986447  0.64383981  0.52023386     0.14800
C1475       C  0.32663310  0.62730634  0.48805914    -0.16100
H1476       H  0.33141698  0.61090267  0.53846967     0.09200
H1477       H  0.30730770  0.65278974  0.65811331     0.07000
H1478       H  0.32532252  0.66689768  0.63101430     0.08200
H1479       H  0.34222775  0.64412722  0.65261298     0.07300
H1480       H  0.30442903  0.55946403  0.55640197     0.02100
H1481       H  0.26989554  0.56510588  0.56516755     0.02600
H1482       H  0.28969016  0.54165795  0.58370556     0.06100
H1483       H  0.22547638  0.63359498  0.56315242     0.05100
H1484       H  0.25121486  0.63857417  0.58758916    -0.00700
H1485       H  0.24174424  0.60519167  0.57774103     0.00800
H1486       H  0.34363205  0.64000741  0.49439354     0.04500
H1487       H  0.31958837  0.63421116  0.46833842     0.06400
H1488       H  0.33381289  0.60649727  0.48556900     0.07300
C1489       C  0.24421243  0.49383428  0.81187272    -0.22300
C1490       C  0.25577208  0.46836676  0.81310393     0.09600
C1491       C  0.27809997  0.46244129  0.79706360     0.10000
C1492       C  0.28877125  0.48233221  0.78066492    -0.17300
C1493       C  0.27771542  0.50803110  0.77987319    -0.27700
C1494       C  0.25499180  0.51385180  0.79552594     0.18400
C1495       C  0.24572293  0.44867299  0.83269890     0.12300
C1496       C  0.29106584  0.43530898  0.79772811    -0.12000
H1497       H  0.30601112  0.47786001  0.76848217     0.12600
C1498       C  0.24236868  0.54111500  0.79638788    -0.22900
H1499       H  0.22717866  0.49835343  0.82436295     0.08300
C1500       C  0.25455153  0.44913119  0.85931518     0.04600
C1501       C  0.24772295  0.42812289  0.87639653    -0.20100
C1502       C  0.23263957  0.40617399  0.86747609    -0.12400
C1503       C  0.22262502  0.40654095  0.84090114     0.13300
C1504       C  0.22925654  0.42788548  0.82401412    -0.22800
C1505       C  0.27224335  0.47124330  0.86935572    -0.05900
H1506       H  0.25532552  0.42833493  0.89658810     0.14800
C1507       C  0.20610345  0.38414781  0.82945148    -0.16100
H1508       H  0.22257454  0.42780833  0.80348955     0.09200
H1509       H  0.24267870  0.54874246  0.81713440     0.07000
H1510       H  0.22133380  0.53977201  0.78955093     0.08200
H1511       H  0.25282046  0.55586127  0.78377961     0.07300
H1512       H  0.27649738  0.41989325  0.79138906     0.02100
H1513       H  0.29801855  0.43080713  0.81821651     0.02600
H1514       H  0.30855411  0.43417314  0.78422604     0.06100
H1515       H  0.27771670  0.46843814  0.89058326     0.05100
H1516       H  0.26173805  0.49064270  0.86747805    -0.00700
H1517       H  0.29093545  0.47184947  0.85754709     0.00800
H1518       H  0.20025043  0.38804347  0.80849146     0.04500
H1519       H  0.18746015  0.38180970  0.84110599     0.06400
H1520       H  0.21771991  0.36528854  0.82966326     0.07300
C1521       C  0.32723680  0.66922908  0.83463679    -0.22300
C1522       C  0.30364761  0.66502630  0.84896147     0.09600
C1523       C  0.28834445  0.64185469  0.84411914     0.10000
C1524       C  0.29612642  0.62432984  0.82379412    -0.17300
C1525       C  0.31872115  0.62958910  0.80828485    -0.27700
C1526       C  0.33510569  0.65164804  0.81448158     0.18400
C1527       C  0.29359733  0.68724590  0.86550074     0.12300
C1528       C  0.26341875  0.63547455  0.85954195    -0.12000
H1529       H  0.28375338  0.60720300  0.81917934     0.12600
C1530       C  0.36094942  0.65660589  0.80002115    -0.22900
H1531       H  0.33886971  0.68705986  0.83837526     0.08300
C1532       C  0.30683635  0.69569566  0.88879110     0.04600
C1533       C  0.29853287  0.71926042  0.90133953    -0.20100
C1534       C  0.27792421  0.73498602  0.89061582    -0.12400
C1535       C  0.26368120  0.72559281  0.86811116     0.13300
C1536       C  0.27167662  0.70174421  0.85595784    -0.22800
C1537       C  0.32988044  0.68011350  0.90019661    -0.05900
H1538       H  0.30922031  0.72616739  0.91877455     0.14800
C1539       C  0.24012777  0.74046406  0.85669200    -0.16100
H1540       H  0.26152796  0.69493161  0.83813687     0.09200
H1541       H  0.37170015  0.67419520  0.80812849     0.07000
H1542       H  0.35723829  0.66028530  0.77858911     0.08200
H1543       H  0.37409084  0.63897641  0.80236708     0.07300
H1544       H  0.24600435  0.63525434  0.84586079     0.02100
H1545       H  0.25941905  0.65000600  0.87569181     0.02600
H1546       H  0.26549598  0.61550449  0.86881861     0.06100
H1547       H  0.33738491  0.68916431  0.91894718     0.05100
H1548       H  0.34667769  0.67956466  0.88587904    -0.00700
H1549       H  0.32339347  0.65942619  0.90456981     0.00800
H1550       H  0.23008247  0.72887885  0.84071301     0.04500
H1551       H  0.24670501  0.75954969  0.84777547     0.06400
H1552       H  0.22522876  0.74438285  0.87254753     0.07300
C1553       C  0.43752581  0.65414617  0.71948692    -0.22300
C1554       C  0.44733498  0.65818234  0.74530350     0.09600
C1555       C  0.43634271  0.64367078  0.76662396     0.10000
C1556       C  0.41545767  0.62578135  0.76175345    -0.17300
C1557       C  0.40404097  0.62308221  0.73632833    -0.27700
C1558       C  0.41586254  0.63687652  0.71468392     0.18400
C1559       C  0.46710681  0.67954748  0.75050583     0.12300
C1560       C  0.44566762  0.64813761  0.79482707    -0.12000
H1561       H  0.40690170  0.61509058  0.77836953     0.12600
C1562       C  0.40599370  0.63349879  0.68654046    -0.22900
H1563       H  0.44619185  0.66533508  0.70323176     0.08300
C1564       C  0.49444278  0.67394747  0.75415883     0.04600
C1565       C  0.51120447  0.69371374  0.76488921    -0.20100
C1566       C  0.50127039  0.71906976  0.77167083    -0.12400
C1567       C  0.47415018  0.72504525  0.76634245     0.13300
C1568       C  0.45747539  0.70522589  0.75573351    -0.22800
C1569       C  0.50570960  0.64699432  0.74718222    -0.05900
H1570       H  0.53202665  0.68915182  0.76862191     0.14800
C1571       C  0.46207992  0.75147816  0.77376249    -0.16100
H1572       H  0.43639275  0.70926705  0.75296420     0.09200
H1573       H  0.40572794  0.61200862  0.68120591     0.07000
H1574       H  0.41906477  0.64391942  0.67208863     0.08200
H1575       H  0.38569338  0.64203945  0.68437349     0.07300
H1576       H  0.44245466  0.66929365  0.80052725     0.02100
H1577       H  0.46719540  0.64330946  0.79661832     0.02600
H1578       H  0.43461813  0.63548689  0.80917798     0.06100
H1579       H  0.52749650  0.64593357  0.75114245     0.05100
H1580       H  0.50235144  0.64293778  0.72571997    -0.00700
H1581       H  0.49579119  0.63124246  0.75904759     0.00800
H1582       H  0.47178196  0.76770192  0.76235338     0.04500
H1583       H  0.46476128  0.75482012  0.79542652     0.06400
H1584       H  0.44036475  0.75224766  0.76936263     0.07300
C1585       C  0.61182623  0.55363374  0.31173788    -0.22300
C1586       C  0.59753940  0.56643999  0.29150983     0.09600
C1587       C  0.59300250  0.55314337  0.26721216     0.10000
C1588       C  0.60429751  0.52785068  0.26309174    -0.17300
C1589       C  0.62064503  0.51582750  0.28246753    -0.27700
C1590       C  0.62352808  0.52851434  0.30759826     0.18400
C1591       C  0.59139878  0.59513596  0.29473925     0.12300
C1592       C  0.57722714  0.56615582  0.24523735    -0.12000
H1593       H  0.60171875  0.51824029  0.24394143     0.12600
C1594       C  0.63899225  0.51603830  0.33015374    -0.22900
H1595       H  0.61502977  0.56402915  0.33039367     0.08300
C1596       C  0.56759116  0.60437363  0.30642461     0.04600
C1597       C  0.56367733  0.63196208  0.30967236    -0.20100
C1598       C  0.58313125  0.65049365  0.30157975    -0.12400
C1599       C  0.60683809  0.64095205  0.28932272     0.13300
C1600       C  0.61062957  0.61343102  0.28630104    -0.22800
C1601       C  0.54641147  0.58513662  0.31537552    -0.05900
H1602       H  0.54535168  0.63907747  0.31865059     0.14800
C1603       C  0.62786937  0.65940681  0.27830986    -0.16100
H1604       H  0.62876387  0.60600772  0.27714965     0.09200
H1605       H  0.63685165  0.52764394  0.34886791     0.07000
H1606       H  0.66058201  0.51539074  0.32540718     0.08200
H1607       H  0.63149643  0.49557038  0.33393847     0.07300
H1608       H  0.58707828  0.58496568  0.23907646     0.02100
H1609       H  0.55674925  0.57069097  0.25228290     0.02600
H1610       H  0.57560115  0.55304832  0.22748287     0.06100
H1611       H  0.52896091  0.59565194  0.32406977     0.05100
H1612       H  0.55474450  0.57155711  0.33070429    -0.00700
H1613       H  0.53932403  0.57314429  0.29820076     0.00800
H1614       H  0.63741263  0.67082565  0.29466608     0.04500
H1615       H  0.61871661  0.67328899  0.26371952     0.06400
H1616       H  0.64395603  0.64830889  0.26788544     0.07300
C1617       C  0.66595977  0.32933677  0.17174882    -0.22300
C1618       C  0.68120259  0.33782306  0.15005544     0.09600
C1619       C  0.68958268  0.36461214  0.14861335     0.10000
C1620       C  0.68340435  0.38214585  0.16959830    -0.17300
C1621       C  0.66916343  0.37336628  0.19199928    -0.27700
C1622       C  0.65976355  0.34669710  0.19274195     0.18400
C1623       C  0.68915030  0.31756569  0.13007483     0.12300
C1624       C  0.70502690  0.37459581  0.12499608    -0.12000
H1625       H  0.69030028  0.40260524  0.16882322     0.12600
C1626       C  0.64266579  0.33644920  0.21520739    -0.22900
H1627       H  0.65934511  0.30877270  0.17246744     0.08300
C1628       C  0.71275132  0.30258340  0.13343424     0.04600
C1629       C  0.71743391  0.28050689  0.11695412    -0.20100
C1630       C  0.69885426  0.27267008  0.09753928    -0.12400
C1631       C  0.67554617  0.28818275  0.09360695     0.13300
C1632       C  0.67115435  0.31064476  0.10981160    -0.22800
C1633       C  0.73226143  0.30894802  0.15540193    -0.05900
H1634       H  0.73503527  0.26833589  0.12022660     0.14800
C1635       C  0.65403063  0.28069744  0.07398361    -0.16100
H1636       H  0.65283920  0.32196646  0.10761547     0.09200
H1637       H  0.65428360  0.33588395  0.23399116     0.07000
H1638       H  0.63544982  0.31587250  0.21131704     0.08200
H1639       H  0.62490825  0.34947281  0.21771596     0.07300
H1640       H  0.69297863  0.37185407  0.10664520     0.02100
H1641       H  0.72398725  0.36335791  0.12296703     0.02600
H1642       H  0.70993790  0.39610063  0.12694312     0.06100
H1643       H  0.74948995  0.29499720  0.15542998     0.05100
H1644       H  0.72219196  0.30743050  0.17499131    -0.00700
H1645       H  0.74009936  0.32945813  0.15291036     0.00800
H1646       H  0.63500050  0.27729916  0.08474422     0.04500
H1647       H  0.65863949  0.26238489  0.06256888     0.06400
H1648       H  0.65114899  0.29722599  0.05959556     0.07300
C1649       C  0.52678183  0.32349904  0.21183951    -0.22300
C1650       C  0.52061575  0.33506704  0.23643478     0.09600
C1651       C  0.49682334  0.32793390  0.24953966     0.10000
C1652       C  0.47980994  0.30895013  0.23778120    -0.17300
C1653       C  0.48622616  0.29706115  0.21327382    -0.27700
C1654       C  0.51023363  0.30423335  0.20029770     0.18400
C1655       C  0.54071488  0.35300506  0.24855288     0.12300
C1656       C  0.48966729  0.34011084  0.27595692    -0.12000
H1657       H  0.46139922  0.30346874  0.24763639     0.12600
C1658       C  0.51986990  0.29115119  0.17499243    -0.22900
H1659       H  0.54529149  0.32883199  0.20204380     0.08300
C1660       C  0.56431614  0.34248081  0.25963530     0.04600
C1661       C  0.58516302  0.35974928  0.26641325    -0.20100
C1662       C  0.58341904  0.38732284  0.26162528    -0.12400
C1663       C  0.55892505  0.39807601  0.25234751     0.13300
C1664       C  0.53778690  0.38069068  0.24602588    -0.22800
C1665       C  0.56795436  0.31286243  0.26329625    -0.05900
H1666       H  0.60372782  0.35128475  0.27360054     0.14800
C1667       C  0.55489734  0.42765546  0.24892643    -0.16100
H1668       H  0.51941909  0.38858171  0.23776619     0.09200
H1669       H  0.54009098  0.28268775  0.17831152     0.07000
H1670       H  0.52103280  0.30624463  0.15891027     0.08200
H1671       H  0.50707249  0.27454169  0.16813267     0.07300
H1672       H  0.48778178  0.36206239  0.27385717     0.02100
H1673       H  0.50548330  0.33555533  0.29076473     0.02600
H1674       H  0.47044099  0.33225742  0.28359447     0.06100
H1675       H  0.58743384  0.30805145  0.27271352     0.05100
H1676       H  0.56722162  0.30258582  0.24374890    -0.00700
H1677       H  0.55186859  0.30497849  0.27622924     0.00800
H1678       H  0.56766151  0.43533866  0.23267435     0.04500
H1679       H  0.55978835  0.43812314  0.26778942     0.06400
H1680       H  0.53390006  0.43248113  0.24368503     0.07300
C1681       C  0.75760539  0.56784280  0.14538046    -0.22300
C1682       C  0.73139944  0.55814338  0.14667739     0.09600
C1683       C  0.71164501  0.56920158  0.12992578     0.10000
C1684       C  0.71863215  0.58940668  0.11194891    -0.17300
C1685       C  0.74457980  0.59991917  0.11126628    -0.27700
C1686       C  0.76438702  0.58888973  0.12815344     0.18400
C1687       C  0.72438284  0.53793677  0.16709396     0.12300
C1688       C  0.68283719  0.56085157  0.13214125    -0.12000
H1689       H  0.70326260  0.59834379  0.09964006     0.12600
C1690       C  0.79263482  0.59918711  0.12810414    -0.22900
H1691       H  0.77258362  0.55945836  0.15851455     0.08300
C1692       C  0.72114015  0.51073482  0.16063870     0.04600
C1693       C  0.71109371  0.49310828  0.17992210    -0.20100
C1694       C  0.70488007  0.50195553  0.20570833    -0.12400
C1695       C  0.70916545  0.52910641  0.21241939     0.13300
C1696       C  0.71902344  0.54663624  0.19303632    -0.22800
C1697       C  0.72851542  0.50033141  0.13350659    -0.05900
H1698       H  0.70796664  0.47232776  0.17484283     0.14800
C1699       C  0.70223420  0.54081257  0.23921407    -0.16100
H1700       H  0.72154381  0.56755938  0.19790357     0.09200
H1701       H  0.80575423  0.58727035  0.14137854     0.07000
H1702       H  0.79320713  0.62010795  0.13525193     0.08200
H1703       H  0.80090470  0.59813042  0.10765807     0.07300
H1704       H  0.67552354  0.56485768  0.15259749     0.02100
H1705       H  0.68072269  0.53928937  0.12778800     0.02600
H1706       H  0.66989148  0.57195038  0.11802167     0.06100
H1707       H  0.72504184  0.47852655  0.13183491     0.05100
H1708       H  0.74998732  0.50419574  0.12973727    -0.00700
H1709       H  0.71651479  0.51037301  0.11791439     0.00800
H1710       H  0.72059712  0.54868425  0.24878440     0.04500
H1711       H  0.69286283  0.52643637  0.25297621     0.06400
H1712       H  0.68788629  0.55748474  0.23651624     0.07300
C1713       C  0.70276026  0.42242595  0.40021219    -0.22300
C1714       C  0.68402116  0.40566892  0.41218542     0.09600
C1715       C  0.66032452  0.39912075  0.39847560     0.10000
C1716       C  0.65690200  0.40781581  0.37213089    -0.17300
C1717       C  0.67647920  0.42324665  0.35939919    -0.27700
C1718       C  0.69935417  0.43132620  0.37397921     0.18400
C1719       C  0.69139014  0.39252456  0.43750800     0.12300
C1720       C  0.63900882  0.38249133  0.41147617    -0.12000
H1721       H  0.63932757  0.40173954  0.36108704     0.12600
C1722       C  0.72125899  0.44762590  0.36149893    -0.22900
H1723       H  0.72087077  0.42732529  0.41098359     0.08300
C1724       C  0.70322805  0.36700383  0.43738564     0.04600
C1725       C  0.71046968  0.35520918  0.46154572    -0.20100
C1726       C  0.70705900  0.36858595  0.48587236    -0.12400
C1727       C  0.69538988  0.39433186  0.48599481     0.13300
C1728       C  0.68778446  0.40601510  0.46169499    -0.22800
C1729       C  0.70894562  0.35248946  0.41170431    -0.05900
H1730       H  0.71940845  0.33552215  0.46139321     0.14800
C1731       C  0.68973478  0.40964198  0.51117328    -0.16100
H1732       H  0.67883809  0.42570386  0.46161217     0.09200
H1733       H  0.73810407  0.45104004  0.37547956     0.07000
H1734       H  0.71338013  0.46742765  0.35554936     0.08200
H1735       H  0.72925895  0.43707183  0.34380680     0.07300
H1736       H  0.63181499  0.39273491  0.42969861     0.02100
H1737       H  0.64707878  0.36266281  0.41702344     0.02600
H1738       H  0.62167209  0.37934363  0.39804534     0.06100
H1739       H  0.71874076  0.33293574  0.41525088     0.05100
H1740       H  0.72246197  0.36467140  0.39917230    -0.00700
H1741       H  0.69014116  0.34878843  0.40065349     0.00800
H1742       H  0.70145619  0.42841449  0.51127031     0.04500
H1743       H  0.69451884  0.39832750  0.52944454     0.06400
H1744       H  0.66817140  0.41468163  0.51202201     0.07300
C1745       C  0.60011874  0.29236102  0.60944224    -0.22300
C1746       C  0.58136641  0.30482420  0.59294698     0.09600
C1747       C  0.59029352  0.32008112  0.57111504     0.10000
C1748       C  0.61793018  0.32274998  0.56652408    -0.17300
C1749       C  0.63675351  0.31059700  0.58340746    -0.27700
C1750       C  0.62757632  0.29466660  0.60481317     0.18400
C1751       C  0.55264691  0.30133384  0.59958397     0.12300
C1752       C  0.57069458  0.33309931  0.55250150    -0.12000
H1753       H  0.62486529  0.33450311  0.54984730     0.12600
C1754       C  0.64645539  0.27896309  0.62224268    -0.22900
H1755       H  0.59310948  0.28051643  0.62604113     0.08300
C1756       C  0.54008090  0.27629288  0.59695332     0.04600
C1757       C  0.51498254  0.27219756  0.60861552    -0.20100
C1758       C  0.50210488  0.29244119  0.62316864    -0.12400
C1759       C  0.51374060  0.31821594  0.62381410     0.13300
C1760       C  0.53892161  0.32226623  0.61208084    -0.22800
C1761       C  0.55340161  0.25368418  0.58228676    -0.05900
H1762       H  0.50609076  0.25253233  0.60759429     0.14800
C1763       C  0.49980384  0.34156452  0.63663564    -0.16100
H1764       H  0.54854002  0.34154041  0.61378520     0.09200
H1765       H  0.65925377  0.26592798  0.60973547     0.07000
H1766       H  0.63559214  0.26597376  0.63643962     0.08200
H1767       H  0.65909006  0.29264113  0.63417355     0.07300
H1768       H  0.55828423  0.34770859  0.56354806     0.02100
H1769       H  0.55755426  0.31768836  0.54354129     0.02600
H1770       H  0.58094827  0.34383308  0.53614449     0.06100
H1771       H  0.54047822  0.23572737  0.58138832     0.05100
H1772       H  0.57224674  0.24796198  0.59238007    -0.00700
H1773       H  0.55786006  0.25993932  0.56159363     0.00800
H1774       H  0.49838748  0.33865752  0.65843975     0.04500
H1775       H  0.47949674  0.34382946  0.62804926     0.06400
H1776       H  0.51077196  0.36049038  0.63325774     0.07300
C1777       C  0.67200306  0.17118272  0.65696802    -0.22300
C1778       C  0.69479910  0.16564388  0.64184791     0.09600
C1779       C  0.70879733  0.14156368  0.64583609     0.10000
C1780       C  0.70043997  0.12414214  0.66603056    -0.17300
C1781       C  0.67865502  0.13062919  0.68231376    -0.27700
C1782       C  0.66360729  0.15390547  0.67705596     0.18400
C1783       C  0.70511593  0.18713101  0.62464511     0.12300
C1784       C  0.73273814  0.13460604  0.62916133    -0.12000
H1785       H  0.71175870  0.10615760  0.67004749     0.12600
C1786       C  0.63874926  0.16124851  0.69233676    -0.22900
H1787       H  0.66122084  0.18966200  0.65370742     0.08300
C1788       C  0.69174354  0.19489204  0.60125557     0.04600
C1789       C  0.69845745  0.21917320  0.58923163    -0.20100
C1790       C  0.71798420  0.23606558  0.60033649    -0.12400
C1791       C  0.73298901  0.22695511  0.62249970     0.13300
C1792       C  0.72625436  0.20259132  0.63434418    -0.22800
C1793       C  0.66999032  0.17786631  0.58942280    -0.05900
H1794       H  0.68719742  0.22566693  0.57199433     0.14800
C1795       C  0.75589525  0.24267117  0.63408928    -0.16100
H1796       H  0.73653285  0.19626705  0.65225709     0.09200
H1797       H  0.62183546  0.16374271  0.67825324     0.07000
H1798       H  0.64196660  0.18035075  0.70305564     0.08200
H1799       H  0.63277455  0.14589630  0.70696681     0.07300
H1800       H  0.74861789  0.14975436  0.63197278     0.02100
H1801       H  0.72690154  0.13398874  0.60785408     0.02600
H1802       H  0.74110930  0.11483996  0.63461496     0.06100
H1803       H  0.66195510  0.18660394  0.57076486     0.05100
H1804       H  0.65324034  0.17586571  0.60367697    -0.00700
H1805       H  0.67805530  0.15777116  0.58476043     0.00800
H1806       H  0.74849585  0.26113286  0.64375354     0.04500
H1807       H  0.77035842  0.24774315  0.61817831     0.06400
H1808       H  0.76676506  0.23113419  0.64953821     0.07300
C1809       C  0.82906657  0.33483325  0.66536274    -0.22300
C1810       C  0.84851301  0.31584563  0.65884130     0.09600
C1811       C  0.84838812  0.30418471  0.63324967     0.10000
C1812       C  0.82769550  0.31053985  0.61534215    -0.17300
C1813       C  0.80715473  0.32814081  0.62266774    -0.27700
C1814       C  0.80854547  0.34133075  0.64755531     0.18400
C1815       C  0.86684506  0.30687742  0.68029101     0.12300
C1816       C  0.86993739  0.28496889  0.62499429    -0.12000
H1817       H  0.82686188  0.30080169  0.59609845     0.12600
C1818       C  0.78853970  0.36240696  0.65543621    -0.22900
H1819       H  0.82940629  0.34391671  0.68494593     0.08300
C1820       C  0.88630647  0.32397714  0.69131074     0.04600
C1821       C  0.89921164  0.31664172  0.71502794    -0.20100
C1822       C  0.89277303  0.29280507  0.72820514    -0.12400
C1823       C  0.87487384  0.27470434  0.71594784     0.13300
C1824       C  0.86208975  0.28204820  0.69217210    -0.22800
C1825       C  0.89304029  0.35018315  0.67836191    -0.05900
H1826       H  0.91316637  0.33039461  0.72417543     0.14800
C1827       C  0.86919093  0.24764644  0.72771353    -0.16100
H1828       H  0.84726390  0.26890866  0.68349969     0.09200
H1829       H  0.78783378  0.37823747  0.64002925     0.07000
H1830       H  0.79385435  0.37197450  0.67466801     0.08200
H1831       H  0.76846295  0.35348490  0.65778673     0.07300
H1832       H  0.86966254  0.26711187  0.63797844     0.02100
H1833       H  0.88970012  0.29483272  0.62663697     0.02600
H1834       H  0.86724926  0.27821474  0.60411295     0.06100
H1835       H  0.90923026  0.36076305  0.68917384     0.05100
H1836       H  0.87529503  0.36341118  0.67807796    -0.00700
H1837       H  0.89979949  0.34660293  0.65764228     0.00800
H1838       H  0.85646305  0.23540146  0.71434292     0.04500
H1839       H  0.85848287  0.24964195  0.74688868     0.06400
H1840       H  0.88822487  0.23674041  0.73088175     0.07300
C1841       C  0.73884614  0.45484993  0.62024951    -0.22300
C1842       C  0.74271970  0.45196985  0.64775067     0.09600
C1843       C  0.73855524  0.42687770  0.65966497     0.10000
C1844       C  0.73179028  0.40496159  0.64365703    -0.17300
C1845       C  0.73011380  0.40724301  0.61585004    -0.27700
C1846       C  0.73277055  0.43271396  0.60407440     0.18400
C1847       C  0.75397967  0.47450892  0.66334946     0.12300
C1848       C  0.74273275  0.42290512  0.68908245    -0.12000
H1849       H  0.72970897  0.38550728  0.65276339     0.12600
C1850       C  0.72904758  0.43667215  0.57460511    -0.22900
H1851       H  0.74179127  0.47426044  0.61128885     0.08300
C1852       C  0.78168333  0.47950558  0.66338938     0.04600
C1853       C  0.79212187  0.49918996  0.68030664    -0.20100
C1854       C  0.77557511  0.51401864  0.69735390    -0.12400
C1855       C  0.74759007  0.50999251  0.69622157     0.13300
C1856       C  0.73720606  0.48999051  0.67949073    -0.22800
C1857       C  0.80035451  0.46340895  0.64621311    -0.05900
H1858       H  0.81351839  0.50229510  0.68097671     0.14800
C1859       C  0.72805472  0.52684156  0.71162780    -0.16100
H1860       H  0.71588664  0.48636052  0.67910771     0.09200
H1861       H  0.70908461  0.42922365  0.56855855     0.07000
H1862       H  0.73031551  0.45806006  0.56906278     0.08200
H1863       H  0.74470146  0.42587269  0.56334665     0.07300
H1864       H  0.72878743  0.43584195  0.70038714     0.02100
H1865       H  0.76357987  0.42810183  0.69450637     0.02600
H1866       H  0.73914156  0.40191482  0.69509590     0.06100
H1867       H  0.82145860  0.46958462  0.64895084     0.05100
H1868       H  0.79509688  0.46615400  0.62493776    -0.00700
H1869       H  0.79877125  0.44194886  0.65137082     0.00800
H1870       H  0.71341592  0.53582513  0.69764966     0.04500
H1871       H  0.73763452  0.54350975  0.72248054     0.06400
H1872       H  0.71717704  0.51418541  0.72608703     0.07300
C1873       C  0.84819803  0.35619813  0.29267318    -0.22300
C1874       C  0.82227355  0.35471406  0.30299860     0.09600
C1875       C  0.81561154  0.33415651  0.32089876     0.10000
C1876       C  0.83482708  0.31497618  0.32744532    -0.17300
C1877       C  0.86053254  0.31571997  0.31641995    -0.27700
C1878       C  0.86750060  0.33685327  0.29916216     0.18400
C1879       C  0.80145506  0.37320452  0.29323027     0.12300
C1880       C  0.78791984  0.33193779  0.33238397    -0.12000
H1881       H  0.82949628  0.29873590  0.34061851     0.12600
C1882       C  0.89462449  0.33820353  0.28637392    -0.22900
H1883       H  0.85301245  0.37199198  0.27880175     0.08300
C1884       C  0.79493165  0.39679999  0.30702630     0.04600
C1885       C  0.77180206  0.41090747  0.29985292    -0.20100
C1886       C  0.75498714  0.40164330  0.27943449    -0.12400
C1887       C  0.76302111  0.37936334  0.26403860     0.13300
C1888       C  0.78603070  0.36526936  0.27135906    -0.22800
C1889       C  0.81175454  0.40638046  0.32996175    -0.05900
H1890       H  0.76590531  0.42816149  0.31143391     0.14800
C1891       C  0.74781708  0.36982410  0.23990813    -0.16100
H1892       H  0.79147563  0.34737590  0.26050118     0.09200
H1893       H  0.91023593  0.34032812  0.30191329     0.07000
H1894       H  0.89630697  0.35549117  0.27270169     0.08200
H1895       H  0.89836029  0.31977175  0.27468716     0.07300
H1896       H  0.77312811  0.32940724  0.31611481     0.02100
H1897       H  0.78302626  0.35023242  0.34382549     0.02600
H1898       H  0.78609882  0.31461364  0.34599293     0.06100
H1899       H  0.80379933  0.42513905  0.33865591     0.05100
H1900       H  0.83240938  0.41018270  0.32299445    -0.00700
H1901       H  0.81226300  0.39106094  0.34585778     0.00800
H1902       H  0.76158045  0.36855407  0.22266495     0.04500
H1903       H  0.73142192  0.38345342  0.23404472     0.06400
H1904       H  0.73943197  0.34972214  0.24378088     0.07300
C1905       C  0.86642299  0.25202350  0.44461187    -0.22300
C1906       C  0.83863407  0.24981163  0.44243398     0.09600
C1907       C  0.82733355  0.23909687  0.41907499     0.10000
C1908       C  0.84397577  0.23264644  0.39762067    -0.17300
C1909       C  0.87167241  0.23722178  0.39871189    -0.27700
C1910       C  0.88318224  0.24539354  0.42320430     0.18400
C1911       C  0.82157957  0.26236720  0.46296813     0.12300
C1912       C  0.79754966  0.23600115  0.41620066    -0.12000
H1913       H  0.83491336  0.22612611  0.37913789     0.12600
C1914       C  0.91287562  0.24743375  0.42750996    -0.22900
H1915       H  0.87503600  0.25981835  0.46282871     0.08300
C1916       C  0.81171075  0.24823002  0.48506565     0.04600
C1917       C  0.79436240  0.26115697  0.50290951    -0.20100
C1918       C  0.78706329  0.28800198  0.49927212    -0.12400
C1919       C  0.79721854  0.30210045  0.47707386     0.13300
C1920       C  0.81432716  0.28905687  0.45927737    -0.22800
C1921       C  0.81947391  0.21961413  0.48970392    -0.05900
H1922       H  0.78657630  0.25032858  0.51984023     0.14800
C1923       C  0.78926603  0.33051920  0.47125815    -0.16100
H1924       H  0.82185661  0.29961728  0.44205077     0.09200
H1925       H  0.91851013  0.23594111  0.44553301     0.07000
H1926       H  0.91854332  0.26862191  0.43050212     0.08200
H1927       H  0.92457839  0.23897539  0.41083197     0.07300
H1928       H  0.78766734  0.25572733  0.41811861     0.02100
H1929       H  0.78988786  0.22250262  0.43188338     0.02600
H1930       H  0.79200078  0.22744590  0.39656885     0.06100
H1931       H  0.81006685  0.21149288  0.50795829     0.05100
H1932       H  0.84146426  0.21811774  0.49197728    -0.00700
H1933       H  0.81309742  0.20716282  0.47257998     0.00800
H1934       H  0.79679999  0.34395622  0.48711548     0.04500
H1935       H  0.76722556  0.33206699  0.46998137     0.06400
H1936       H  0.79763856  0.33762081  0.45209592     0.07300
C1937       C  0.06090759  0.34275205  0.22806956    -0.22300
C1938       C  0.04051392  0.35389672  0.24347932     0.09600
C1939       C  0.04191212  0.38099829  0.25080177     0.10000
C1940       C  0.06476063  0.39578884  0.24436558    -0.17300
C1941       C  0.08641987  0.38410573  0.23085977    -0.27700
C1942       C  0.08381522  0.35743099  0.22150289     0.18400
C1943       C  0.02039020  0.33579901  0.25527373     0.12300
C1944       C  0.01954757  0.39411744  0.26596946    -0.12000
H1945       H  0.06620237  0.41627736  0.25107344     0.12600
C1946       C  0.10549050  0.34348159  0.20601116    -0.22900
H1947       H  0.05961445  0.32188913  0.22256550     0.08300
C1948       C  0.00006212  0.32358574  0.24013795     0.04600
C1949       C  0.98281422  0.30530776  0.25250534    -0.20100
C1950       C  0.98556051  0.29892890  0.27961376    -0.12400
C1951       C  0.00636814  0.31096836  0.29458327     0.13300
C1952       C  0.02319403  0.32940131  0.28221865    -0.22800
C1953       C  0.99638123  0.33010624  0.21114499    -0.05900
H1954       H  0.96698894  0.29608347  0.24101226     0.14800
C1955       C  0.01260241  0.30421140  0.32319552    -0.16100
H1956       H  0.03931474  0.33833886  0.29356813     0.09200
H1957       H  0.10938580  0.35437895  0.18721435     0.07000
H1958       H  0.09979846  0.32277514  0.20058320     0.08200
H1959       H  0.12400435  0.34230012  0.21810449     0.07300
H1960       H  0.01696131  0.38441989  0.28560698     0.02100
H1961       H  0.00070570  0.39237343  0.25444787     0.02600
H1962       H  0.02351215  0.41561628  0.26949736     0.06100
H1963       H  0.97910183  0.31931488  0.20243043     0.05100
H1964       H  0.01446959  0.32435892  0.19980270    -0.00700
H1965       H  0.99284927  0.35183527  0.20881409     0.00800
H1966       H  0.03397094  0.29860042  0.32497304     0.04500
H1967       H  0.00106976  0.28724647  0.33112392     0.06400
H1968       H  0.00892963  0.32195514  0.33590375     0.07300
C1969       C  0.84877684  0.24736977  0.19570903    -0.22300
C1970       C  0.85503113  0.22571178  0.17922354     0.09600
C1971       C  0.87773211  0.21006711  0.18471866     0.10000
C1972       C  0.89211418  0.21469299  0.20822210    -0.17300
C1973       C  0.88399492  0.23442433  0.22636921    -0.27700
C1974       C  0.86323431  0.25219863  0.21910857     0.18400
C1975       C  0.83489159  0.21676828  0.15967942     0.12300
C1976       C  0.88565565  0.18743925  0.16665196    -0.12000
H1977       H  0.90835927  0.20139954  0.21344223     0.12600
C1978       C  0.85560333  0.27615487  0.23561700    -0.22900
H1979       H  0.83160489  0.25968871  0.19103866     0.08300
C1980       C  0.81323411  0.20101169  0.16813087     0.04600
C1981       C  0.79398348  0.19312516  0.14962790    -0.20100
C1982       C  0.79577697  0.20051341  0.12280579    -0.12400
C1983       C  0.81767695  0.21612761  0.11417849     0.13300
C1984       C  0.83714261  0.22391989  0.13283072    -0.22800
C1985       C  0.81042965  0.19246278  0.19674647    -0.05900
H1986       H  0.77724921  0.18112844  0.15618007     0.14800
C1987       C  0.82062010  0.22594073  0.08601568    -0.16100
H1988       H  0.85386413  0.23605009  0.12652844     0.09200
H1989       H  0.83513082  0.27351499  0.24358943     0.07000
H1990       H  0.85597884  0.29427255  0.22295432     0.08200
H1991       H  0.86952909  0.27984394  0.25236200     0.07300
H1992       H  0.88984342  0.19527564  0.14644761     0.02100
H1993       H  0.86924929  0.17262818  0.16542913     0.02600
H1994       H  0.90383495  0.17706005  0.17393538     0.06100
H1995       H  0.79248721  0.17986540  0.19982024     0.05100
H1996       H  0.80858290  0.21024986  0.20977319    -0.00700
H1997       H  0.82820441  0.18072612  0.20284560     0.00800
H1998       H  0.82177713  0.24804984  0.08601490     0.04500
H1999       H  0.80374453  0.22026692  0.07299229     0.06400
H2000       H  0.83927166  0.21779720  0.07729923     0.07300
C2001       C  0.32429332  0.17244440  0.67219530    -0.22300
C2002       C  0.33198657  0.15397784  0.69157790     0.09600
C2003       C  0.35818947  0.15452169  0.70185268     0.10000
C2004       C  0.37556428  0.17504134  0.69392934    -0.17300
C2005       C  0.36712522  0.19467011  0.67586897    -0.27700
C2006       C  0.34161918  0.19256490  0.66388841     0.18400
C2007       C  0.31114263  0.13594444  0.70190914     0.12300
C2008       C  0.36756155  0.13372256  0.72129280    -0.12000
H2009       H  0.39530260  0.17642370  0.70266900     0.12600
C2010       C  0.33200758  0.21101939  0.64217347    -0.22900
H2011       H  0.30431568  0.17149931  0.66390459     0.08300
C2012       C  0.29478931  0.14402369  0.72324234     0.04600
C2013       C  0.27146786  0.12968759  0.72875815    -0.20100
C2014       C  0.26362926  0.10786135  0.71298374    -0.12400
C2015       C  0.28088251  0.09897319  0.69239777     0.13300
C2016       C  0.30452118  0.11312289  0.68726994    -0.22800
C2017       C  0.30106395  0.16878117  0.73912917    -0.05900
H2018       H  0.25850484  0.13649611  0.74461950     0.14800
C2019       C  0.27378565  0.07590755  0.67447002    -0.16100
H2020       H  0.31709558  0.10737512  0.67069705     0.09200
H2021       H  0.31453514  0.22259110  0.64933570     0.07000
H2022       H  0.32587610  0.19906644  0.62458363     0.08200
H2023       H  0.34749172  0.22512659  0.63527835     0.07300
H2024       H  0.36603481  0.11368086  0.71200846     0.02100
H2025       H  0.35506771  0.13419513  0.73947195     0.02600
H2026       H  0.38865113  0.13699848  0.72727775     0.06100
H2027       H  0.28599068  0.17246085  0.75488365     0.05100
H2028       H  0.30137028  0.18643080  0.72583233    -0.00700
H2029       H  0.32082718  0.16671313  0.74887067     0.00800
H2030       H  0.25458840  0.07996428  0.66416165     0.04500
H2031       H  0.27215940  0.05734649  0.68634204     0.06400
H2032       H  0.28919516  0.07248756  0.65897862     0.07300
C2033       C  0.20105996  0.14380157  0.84848029    -0.22300
C2034       C  0.19407290  0.17072743  0.84565907     0.09600
C2035       C  0.17943744  0.17906768  0.82319540     0.10000
C2036       C  0.17258294  0.16039010  0.80369897    -0.17300
C2037       C  0.18021256  0.13350349  0.80582499    -0.27700
C2038       C  0.19426132  0.12495805  0.82879111     0.18400
C2039       C  0.20336565  0.19061431  0.86533565     0.12300
C2040       C  0.17162199  0.20788334  0.81943151    -0.12000
H2041       H  0.16156901  0.16699119  0.78632925     0.12600
C2042       C  0.20315315  0.09645229  0.83215261    -0.22900
H2043       H  0.21235555  0.13768442  0.86583266     0.08300
C2044       C  0.18673363  0.19939691  0.88615951     0.04600
C2045       C  0.19347153  0.22270389  0.90011636    -0.20100
C2046       C  0.21635384  0.23743680  0.89345377    -0.12400
C2047       C  0.23450656  0.22680418  0.87461972     0.13300
C2048       C  0.22754511  0.20370284  0.86051692    -0.22800
C2049       C  0.16124175  0.18494035  0.89263907    -0.05900
H2050       H  0.17969788  0.23053918  0.91478209     0.14800
C2051       C  0.26114470  0.23941409  0.86865825    -0.16100
H2052       H  0.24051457  0.19652021  0.84481158     0.09200
H2053       H  0.18550026  0.08316094  0.83321818     0.07000
H2054       H  0.21485993  0.09366084  0.85072244     0.08200
H2055       H  0.21593898  0.09043149  0.81514797     0.07300
H2056       H  0.18977305  0.22052532  0.81867717     0.02100
H2057       H  0.15885020  0.21456193  0.83617732     0.02600
H2058       H  0.16029896  0.21096011  0.80067219     0.06100
H2059       H  0.15052105  0.19445409  0.90948621     0.05100
H2060       H  0.16586118  0.16402850  0.89821587    -0.00700
H2061       H  0.14775262  0.18492458  0.87510940     0.00800
H2062       H  0.27713797  0.22420739  0.87068468     0.04500
H2063       H  0.26623492  0.25583112  0.88253917     0.06400
H2064       H  0.26121691  0.24713531  0.84797275     0.07300
C2065       C  0.07355008  0.17481770  0.73535558    -0.22300
C2066       C  0.05194548  0.16526433  0.75008811     0.09600
C2067       C  0.05086441  0.13798975  0.75677075     0.10000
C2068       C  0.07213675  0.12110200  0.74967168    -0.17300
C2069       C  0.09472248  0.13082555  0.73616254    -0.27700
C2070       C  0.09502957  0.15813793  0.72841130     0.18400
C2071       C  0.03219033  0.18472048  0.76064538     0.12300
C2072       C  0.02760374  0.12692661  0.77212194    -0.12000
H2073       H  0.07154399  0.10035910  0.75564008     0.12600
C2074       C  0.11845827  0.17055708  0.71429884    -0.22900
H2075       H  0.07416720  0.19583475  0.73038806     0.08300
C2076       C  0.03618479  0.19708100  0.78557197     0.04600
C2077       C  0.01695646  0.21494663  0.79530459    -0.20100
C2078       C  0.99396902  0.22122371  0.78055129    -0.12400
C2079       C  0.99011500  0.20908911  0.75534604     0.13300
C2080       C  0.00938527  0.19104501  0.74569212    -0.22800
C2081       C  0.06082638  0.19145673  0.80187743    -0.05900
H2082       H  0.01993454  0.22422358  0.81458191     0.14800
C2083       C  0.96558358  0.21374749  0.73858259    -0.16100
H2084       H  0.00640865  0.18153265  0.72653786     0.09200
H2085       H  0.13674094  0.16855438  0.72665171     0.07000
H2086       H  0.11532827  0.19215586  0.71054909     0.08200
H2087       H  0.12143376  0.16078181  0.69470445     0.07300
H2088       H  0.00888636  0.13015063  0.76072353     0.02100
H2089       H  0.02598530  0.13710840  0.79166966     0.02600
H2090       H  0.02981822  0.10520463  0.77578411     0.06100
H2091       H  0.06086809  0.20283541  0.82084846     0.05100
H2092       H  0.07887893  0.19718259  0.79047215    -0.00700
H2093       H  0.06190826  0.16990816  0.80673844     0.00800
H2094       H  0.97148815  0.22261019  0.71924919     0.04500
H2095       H  0.95082445  0.22712905  0.74808088     0.06400
H2096       H  0.95547481  0.19441803  0.73477831     0.07300
C2097       C  0.24515494  0.99155848  0.81685772    -0.22300
C2098       C  0.22942188  0.96940676  0.82340184     0.09600
C2099       C  0.20414519  0.96627792  0.81141369     0.10000
C2100       C  0.19496679  0.98561420  0.79352106    -0.17300
C2101       C  0.21050246  0.00791627  0.78695654    -0.27700
C2102       C  0.23600748  0.01096790  0.79880041     0.18400
C2103       C  0.23965683  0.94921981  0.84242056     0.12300
C2104       C  0.18698705  0.94231335  0.81720896    -0.12000
H2105       H  0.17554711  0.98318890  0.78434610     0.12600
C2106       C  0.25367033  0.03471996  0.79376387    -0.22900
H2107       H  0.26458770  0.99383430  0.82609366     0.08300
C2108       C  0.25637356  0.92833488  0.83391185     0.04600
C2109       C  0.26204503  0.90724032  0.85133161    -0.20100
C2110       C  0.25089186  0.90607102  0.87704086    -0.12400
C2111       C  0.23553310  0.92818400  0.88610888     0.13300
C2112       C  0.23026559  0.94945216  0.86863819    -0.22800
C2113       C  0.26717483  0.92769162  0.80597437    -0.05900
H2114       H  0.27401228  0.89077523  0.84407440     0.14800
C2115       C  0.22415456  0.92964591  0.91383221    -0.16100
H2116       H  0.21764340  0.96581557  0.87502135     0.09200
H2117       H  0.27269651  0.02795212  0.78469033     0.07000
H2118       H  0.25814609  0.04481259  0.81293224     0.08200
H2119       H  0.24448587  0.04974048  0.78049054     0.07300
H2120       H  0.18194950  0.94174864  0.83868542     0.02100
H2121       H  0.19788442  0.92381089  0.81177134     0.02600
H2122       H  0.16801555  0.94275869  0.80575484     0.06100
H2123       H  0.27970220  0.90977258  0.80237175     0.05100
H2124       H  0.27964554  0.94560938  0.80243156    -0.00700
H2125       H  0.25042313  0.92743426  0.79149170     0.00800
H2126       H  0.24027896  0.92661302  0.92870228     0.04500
H2127       H  0.20834391  0.91441477  0.91642760     0.06400
H2128       H  0.21486070  0.94935171  0.91788732     0.07300
C2129       C  0.31933930  0.18222919  0.32436957    -0.22300
C2130       C  0.33709096  0.20260165  0.33144982     0.09600
C2131       C  0.33514267  0.21457650  0.35678307     0.10000
C2132       C  0.31482207  0.20637247  0.37422152    -0.17300
C2133       C  0.29623289  0.18680629  0.36661435    -0.27700
C2134       C  0.29894971  0.17412438  0.34158567     0.18400
C2135       C  0.35622350  0.21181086  0.31097397     0.12300
C2136       C  0.35435000  0.23602823  0.36525766    -0.12000
H2137       H  0.31286124  0.21592472  0.39345787     0.12600
C2138       C  0.28075984  0.15170844  0.33303648    -0.22900
H2139       H  0.32114010  0.17301343  0.30492829     0.08300
C2140       C  0.37873289  0.19645819  0.30392695     0.04600
C2141       C  0.39284743  0.20273309  0.28064360    -0.20100
C2142       C  0.38478110  0.22390534  0.26418402    -0.12400
C2143       C  0.36377241  0.24080075  0.27272458     0.13300
C2144       C  0.34955174  0.23429355  0.29583759    -0.22800
C2145       C  0.38728597  0.17298765  0.32054334    -0.05900
H2146       H  0.40914798  0.18996968  0.27438762     0.14800
C2147       C  0.35578675  0.26577406  0.25803162    -0.16100
H2148       H  0.33249085  0.24630847  0.30156393     0.09200
H2149       H  0.28705810  0.14292028  0.31374645     0.07000
H2150       H  0.26005941  0.15911436  0.33047663     0.08200
H2151       H  0.28108038  0.13559474  0.34816210     0.07300
H2152       H  0.35270367  0.25336924  0.35166570     0.02100
H2153       H  0.37505643  0.22816079  0.36462636     0.02600
H2154       H  0.35024062  0.24305143  0.38581541     0.06100
H2155       H  0.40547649  0.16330298  0.31241526     0.05100
H2156       H  0.37116248  0.15785442  0.32112523    -0.00700
H2157       H  0.39171945  0.17976562  0.34111531     0.00800
H2158       H  0.33521472  0.26354779  0.25010877     0.04500
H2159       H  0.36940842  0.27070591  0.24142278     0.06400
H2160       H  0.35623648  0.28298104  0.27195395     0.07300
C2161       C  0.23791769  0.01291182  0.31738000    -0.22300
C2162       C  0.25343924  0.03434388  0.32647110     0.09600
C2163       C  0.27973525  0.03739431  0.31701609     0.10000
C2164       C  0.28983876  0.01912583  0.29846765    -0.17300
C2165       C  0.27425696  0.99793272  0.28880155    -0.27700
C2166       C  0.24806083  0.99444069  0.29884307     0.18400
C2167       C  0.24169201  0.05436926  0.34482474     0.12300
C2168       C  0.29694907  0.06033616  0.32604538    -0.12000
H2169       H  0.30995445  0.02174371  0.29101744     0.12600
C2170       C  0.23061074  0.97111584  0.29139842    -0.22900
H2171       H  0.21778111  0.01055245  0.32486098     0.08300
C2172       C  0.22649975  0.07585544  0.33497669     0.04600
C2173       C  0.21972109  0.09692992  0.35207531    -0.20100
C2174       C  0.22783658  0.09713457  0.37890509    -0.12400
C2175       C  0.24079746  0.07420982  0.38930082     0.13300
C2176       C  0.24803052  0.05339188  0.37197476    -0.22800
C2177       C  0.21865712  0.07718165  0.30606652    -0.05900
H2178       H  0.20957659  0.11416024  0.34388475     0.14800
C2179       C  0.24712233  0.07079913  0.41842214    -0.16100
H2180       H  0.25919513  0.03650947  0.37958730     0.09200
H2181       H  0.21238773  0.97844387  0.28115434     0.07000
H2182       H  0.22460582  0.96033976  0.30971350     0.08200
H2183       H  0.24065706  0.95642862  0.27836679     0.07300
H2184       H  0.30002554  0.05929915  0.34788646     0.02100
H2185       H  0.28711686  0.07952529  0.32098423     0.02600
H2186       H  0.31685510  0.06000274  0.31637005     0.06100
H2187       H  0.20708339  0.09551448  0.30151458     0.05100
H2188       H  0.20609623  0.05970067  0.30090160    -0.00700
H2189       H  0.23679981  0.07711088  0.29342252     0.00800
H2190       H  0.23926005  0.05131496  0.42533640     0.04500
H2191       H  0.23772264  0.08620365  0.43113409     0.06400
H2192       H  0.26907142  0.07110680  0.42143718     0.07300
C2193       C  0.32202651  0.24250945  0.50059385    -0.22300
C2194       C  0.31589082  0.24371638  0.52775548     0.09600
C2195       C  0.29035639  0.23578763  0.53656221     0.10000
C2196       C  0.27185809  0.22580466  0.51805977    -0.17300
C2197       C  0.27847830  0.22333670  0.49107327    -0.27700
C2198       C  0.30357081  0.23249296  0.48208184     0.18400
C2199       C  0.33712492  0.25091513  0.54703465     0.12300
C2200       C  0.28305919  0.23688730  0.56561265    -0.12000
H2201       H  0.25258073  0.21878328  0.52484431     0.12600
C2202       C  0.31140697  0.23208861  0.45315587    -0.22900
H2203       H  0.34158078  0.24881681  0.49389617     0.08300
C2204       C  0.35579831  0.23172790  0.55559148     0.04600
C2205       C  0.37348644  0.23806170  0.57625736    -0.20100
C2206       C  0.37265350  0.26298792  0.58914476    -0.12400
C2207       C  0.35478802  0.28274764  0.57947760     0.13300
C2208       C  0.33735981  0.27643396  0.55840543    -0.22800
C2209       C  0.35621933  0.20410083  0.54374614    -0.05900
H2210       H  0.38693280  0.22273780  0.58344609     0.14800
C2211       C  0.35372506  0.31040421  0.59119574    -0.16100
H2212       H  0.32308015  0.29110866  0.55145021     0.09200
H2213       H  0.32907508  0.21900966  0.45040657     0.07000
H2214       H  0.31659023  0.25260130  0.44670319     0.08200
H2215       H  0.29520712  0.22486645  0.43996860     0.07300
H2216       H  0.28422794  0.25777001  0.57285771     0.02100
H2217       H  0.29703633  0.22431362  0.57731583     0.02600
H2218       H  0.26247205  0.22953821  0.56915180     0.06100
H2219       H  0.37176795  0.19135538  0.55305664     0.05100
H2220       H  0.36047678  0.20529274  0.52212559    -0.00700
H2221       H  0.33657654  0.19434754  0.54675544     0.00800
H2222       H  0.34573499  0.30969478  0.61172976     0.04500
H2223       H  0.37399444  0.31932464  0.59128065     0.06400
H2224       H  0.34042809  0.32373954  0.57953846     0.07300
C2225       C  0.08421474  0.21101790  0.41368149    -0.22300
C2226       C  0.07291758  0.19274147  0.39585560     0.09600
C2227       C  0.08810400  0.17063325  0.38727802     0.10000
C2228       C  0.11486865  0.16824352  0.39537937    -0.17300
C2229       C  0.12675482  0.18739400  0.41201739    -0.27700
C2230       C  0.11093224  0.20869891  0.42188145     0.18400
C2231       C  0.04727572  0.19989770  0.38283261     0.12300
C2232       C  0.07618806  0.14993572  0.36908241    -0.12000
H2233       H  0.12685200  0.15185477  0.38794504     0.12600
C2234       C  0.12250738  0.23022063  0.43941208    -0.22900
H2235       H  0.07250210  0.22809197  0.41992951     0.08300
C2236       C  0.02230073  0.19739718  0.39552882     0.04600
C2237       C  0.99909418  0.20651372  0.38246686    -0.20100
C2238       C  0.00044266  0.21788363  0.35695655    -0.12400
C2239       C  0.02568610  0.22050038  0.34445847     0.13300
C2240       C  0.04858006  0.21129317  0.35750479    -0.22800
C2241       C  0.02019703  0.18479223  0.42257391    -0.05900
H2242       H  0.97983334  0.20446695  0.39202016     0.14800
C2243       C  0.02974434  0.23381144  0.31785295    -0.16100
H2244       H  0.06788138  0.21363496  0.34804706     0.09200
H2245       H  0.10760717  0.24594481  0.44409233     0.07000
H2246       H  0.13958399  0.23990123  0.42923932     0.08200
H2247       H  0.12927801  0.22149976  0.45854185     0.07300
H2248       H  0.07017301  0.15918905  0.34995570     0.02100
H2249       H  0.05837931  0.14098818  0.37866217     0.02600
H2250       H  0.09058180  0.13367869  0.36465303     0.06100
H2251       H  0.99918670  0.18391724  0.42951017     0.05100
H2252       H  0.03188136  0.19652344  0.43725454    -0.00700
H2253       H  0.02815195  0.16413439  0.42178794     0.00800
H2254       H  0.04459277  0.25008824  0.32000327     0.04500
H2255       H  0.01146759  0.24288377  0.30949900     0.06400
H2256       H  0.03754872  0.21902064  0.30336706     0.07300
C2257       C  0.18699871  0.07620276  0.58970603    -0.22300
C2258       C  0.18440168  0.10265058  0.58114321     0.09600
C2259       C  0.17792850  0.12265899  0.59976390     0.10000
C2260       C  0.17553856  0.11599688  0.62669512    -0.17300
C2261       C  0.17991198  0.08981080  0.63592151    -0.27700
C2262       C  0.18498340  0.06942922  0.61681489     0.18400
C2263       C  0.19108123  0.10972207  0.55325016     0.12300
C2264       C  0.17470610  0.15137784  0.59146370    -0.12000
H2265       H  0.17114784  0.13179824  0.64073580     0.12600
C2266       C  0.18903460  0.04065469  0.62447475    -0.22900
H2267       H  0.19165826  0.06094208  0.57514292     0.08300
C2268       C  0.21789029  0.11066441  0.54465578     0.04600
C2269       C  0.22387908  0.12193187  0.51984441    -0.20100
C2270       C  0.20377793  0.13276470  0.50365258    -0.12400
C2271       C  0.17675519  0.13004296  0.51141916     0.13300
C2272       C  0.17078193  0.11856001  0.53615910    -0.22800
C2273       C  0.24035466  0.10124425  0.56227979    -0.05900
H2274       H  0.24455475  0.12386762  0.51384618     0.14800
C2275       C  0.15376570  0.13891198  0.49418173    -0.16100
H2276       H  0.15017689  0.11733323  0.54258020     0.09200
H2277       H  0.19216099  0.02771476  0.60679972     0.07000
H2278       H  0.17113684  0.03314458  0.63506736     0.08200
H2279       H  0.20698469  0.03867821  0.63728975     0.07300
H2280       H  0.15772774  0.15330800  0.57740836     0.02100
H2281       H  0.19324954  0.15846126  0.58171332     0.02600
H2282       H  0.17063125  0.16461459  0.60871723     0.06100
H2283       H  0.26013494  0.10425906  0.55282770     0.05100
H2284       H  0.23810456  0.07964174  0.56640778    -0.00700
H2285       H  0.24013503  0.11247155  0.58133187     0.00800
H2286       H  0.13993375  0.12191188  0.49102300     0.04500
H2287       H  0.16011632  0.14579800  0.47425344     0.06400
H2288       H  0.14277621  0.15530049  0.50422644     0.07300
C2289       C  0.16535175  0.33066638  0.32617340    -0.22300
C2290       C  0.18710464  0.33576210  0.34299254     0.09600
C2291       C  0.20133556  0.35991061  0.34040225     0.10000
C2292       C  0.19396097  0.37804933  0.32036947    -0.17300
C2293       C  0.17288077  0.37235280  0.30283201    -0.27700
C2294       C  0.15793350  0.34872478  0.30623973     0.18400
C2295       C  0.19531489  0.31452471  0.36183308     0.12300
C2296       C  0.22422899  0.36648258  0.35869945    -0.12000
H2297       H  0.20527623  0.39625384  0.31776782     0.12600
C2298       C  0.13389414  0.34266997  0.28916073    -0.22900
H2299       H  0.15446171  0.31212964  0.32832581     0.08300
C2300       C  0.17932146  0.30740303  0.38378860     0.04600
C2301       C  0.18539822  0.28417842  0.39814985    -0.20100
C2302       C  0.20700758  0.26787211  0.39093444    -0.12400
C2303       C  0.22447785  0.27645376  0.37052499     0.13300
C2304       C  0.21808468  0.29939363  0.35591973    -0.22800
C2305       C  0.15551634  0.32395784  0.39168712    -0.05900
H2306       H  0.17220999  0.27786851  0.41399289     0.14800
C2307       C  0.25000794  0.26203426  0.36366172    -0.16100
H2308       H  0.23057812  0.30510640  0.33929146     0.09200
H2309       H  0.11930232  0.35929401  0.29055750     0.07000
H2310       H  0.12371249  0.32410552  0.29557058     0.08200
H2311       H  0.13994554  0.33996595  0.26812710     0.07300
H2312       H  0.24040648  0.35155544  0.35635409     0.02100
H2313       H  0.21721250  0.36639704  0.37963449     0.02600
H2314       H  0.23270060  0.38646551  0.35437791     0.06100
H2315       H  0.14563858  0.31594321  0.40974163     0.05100
H2316       H  0.14056115  0.32421458  0.37540275    -0.00700
H2317       H  0.16199759  0.34468189  0.39599792     0.00800
H2318       H  0.24858527  0.25368495  0.34324398     0.04500
H2319       H  0.25485804  0.24574202  0.37773096     0.06400
H2320       H  0.26693129  0.27629642  0.36442728     0.07300
C2321       C  0.15804629  0.68338502  0.71726267    -0.22300
C2322       C  0.16332163  0.66342659  0.69848915     0.09600
C2323       C  0.14729757  0.66138166  0.67551567     0.10000
C2324       C  0.12759983  0.68072630  0.67081459    -0.17300
C2325       C  0.12363304  0.70202768  0.68859893    -0.27700
C2326       C  0.13804547  0.70245180  0.71291141     0.18400
C2327       C  0.18775800  0.64722106  0.70182169     0.12300
C2328       C  0.15155505  0.63927727  0.65564996    -0.12000
H2329       H  0.11622039  0.67994595  0.65248942     0.12600
C2330       C  0.13276701  0.72233523  0.73485604    -0.22900
H2331       H  0.17011062  0.68449055  0.73516388     0.08300
C2332       C  0.21211943  0.65606308  0.69100062     0.04600
C2333       C  0.23543810  0.64166168  0.69620711    -0.20100
C2334       C  0.23507029  0.61856866  0.71190459    -0.12400
C2335       C  0.21057825  0.60932879  0.72236634     0.13300
C2336       C  0.18712224  0.62390444  0.71720656    -0.22800
C2337       C  0.21360688  0.68097936  0.67430309    -0.05900
H2338       H  0.25420813  0.64850013  0.68796143     0.14800
C2339       C  0.20859606  0.58498317  0.73975332    -0.16100
H2340       H  0.16834277  0.61734572  0.72561352     0.09200
H2341       H  0.15036615  0.73552762  0.73742190     0.07000
H2342       H  0.12923448  0.71151471  0.75378096     0.08200
H2343       H  0.11482862  0.73474206  0.73131067     0.07300
H2344       H  0.14867910  0.61972195  0.66554733     0.02100
H2345       H  0.17208057  0.64021653  0.64747824     0.02600
H2346       H  0.13728971  0.64062068  0.63876812     0.06100
H2347       H  0.23427946  0.68503830  0.66749735     0.05100
H2348       H  0.20673491  0.69840591  0.68608820    -0.00700
H2349       H  0.20078259  0.67885405  0.65641794     0.00800
H2350       H  0.20014402  0.59067582  0.75936052     0.04500
H2351       H  0.22814156  0.57534379  0.74340067     0.06400
H2352       H  0.19521145  0.57014238  0.73021958     0.07300
C2353       C  0.13570959  0.72728828  0.56010238    -0.22300
C2354       C  0.14668789  0.74888670  0.54640061     0.09600
C2355       C  0.13972184  0.77509133  0.55388408     0.10000
C2356       C  0.12288424  0.77911424  0.57594192    -0.17300
C2357       C  0.11260586  0.75743730  0.59034028    -0.27700
C2358       C  0.11901868  0.73110787  0.58210452     0.18400
C2359       C  0.16701509  0.74313221  0.52574902     0.12300
C2360       C  0.15045181  0.79866576  0.53885639    -0.12000
H2361       H  0.11813850  0.79922130  0.58230286     0.12600
C2362       C  0.11025568  0.70641413  0.59680714    -0.22900
H2363       H  0.14122489  0.70718965  0.55428444     0.08300
C2364       C  0.19391381  0.73855525  0.53279093     0.04600
C2365       C  0.21186205  0.72921514  0.51347773    -0.20100
C2366       C  0.20339814  0.72375859  0.48739016    -0.12400
C2367       C  0.17669204  0.72973473  0.48003141     0.13300
C2368       C  0.15885823  0.73939494  0.49935815    -0.22800
C2369       C  0.20342479  0.74268155  0.56094694    -0.05900
H2370       H  0.23225175  0.72473915  0.51917994     0.14800
C2371       C  0.16685629  0.72616749  0.45187909    -0.16100
H2372       H  0.13819735  0.74312911  0.49411851     0.09200
H2373       H  0.12811820  0.69498084  0.60326264     0.07000
H2374       H  0.09815281  0.69367358  0.58333966     0.08200
H2375       H  0.09830831  0.71055716  0.61476259     0.07300
H2376       H  0.14403811  0.79745913  0.51773753     0.02100
H2377       H  0.17258200  0.79873591  0.53977911     0.02600
H2378       H  0.14308200  0.81779813  0.54723836     0.06100
H2379       H  0.22504495  0.73827673  0.56308865     0.05100
H2380       H  0.19233889  0.72932696  0.57460368    -0.00700
H2381       H  0.20003482  0.76371062  0.56697619     0.00800
H2382       H  0.16659751  0.70474568  0.44640995     0.04500
H2383       H  0.17998496  0.73725098  0.43799113     0.06400
H2384       H  0.14621213  0.73384860  0.44934709     0.07300
C2385       C  0.07056729  0.91476159  0.68168106    -0.22300
C2386       C  0.09750350  0.92171707  0.68410821     0.09600
C2387       C  0.11732746  0.90207995  0.68044405     0.10000
C2388       C  0.10974353  0.87577275  0.67475093    -0.17300
C2389       C  0.08273543  0.86825903  0.67363904    -0.27700
C2390       C  0.06286065  0.88823576  0.67673520     0.18400
C2391       C  0.10473867  0.94908082  0.69264498     0.12300
C2392       C  0.14649789  0.90864291  0.68375527    -0.12000
H2393       H  0.12509216  0.86065606  0.67282259     0.12600
C2394       C  0.03355375  0.88195161  0.67472339    -0.22900
H2395       H  0.05551540  0.93002999  0.68454286     0.08300
C2396       C  0.11237777  0.96881441  0.67423886     0.04600
C2397       C  0.12313676  0.99293174  0.68363545    -0.20100
C2398       C  0.12596416  0.99787155  0.71102105    -0.12400
C2399       C  0.11703747  0.97849450  0.72944633     0.13300
C2400       C  0.10636636  0.95443792  0.71994952    -0.22800
C2401       C  0.10955644  0.96418488  0.64476760    -0.05900
H2402       H  0.13008584  0.00772125  0.66955505     0.14800
C2403       C  0.11994102  0.98154311  0.75915633    -0.16100
H2404       H  0.10048516  0.93914582  0.73399368     0.09200
H2405       H  0.02112042  0.90028515  0.67543292     0.07000
H2406       H  0.02725122  0.86910836  0.69149876     0.08200
H2407       H  0.02954622  0.87176433  0.65557725     0.07300
H2408       H  0.15022759  0.91615396  0.70421107     0.02100
H2409       H  0.15244751  0.92414440  0.66922312     0.02600
H2410       H  0.15936924  0.89089567  0.68052855     0.06100
H2411       H  0.11638104  0.98168737  0.63311771     0.05100
H2412       H  0.08828016  0.96045154  0.63983504    -0.00700
H2413       H  0.12159009  0.94666063  0.63861441     0.00800
H2414       H  0.09992449  0.98079195  0.76854736     0.04500
H2415       H  0.12962889  0.00039018  0.76524441     0.06400
H2416       H  0.13218386  0.96487069  0.76707230     0.07300
C2417       C  0.93928421  0.63689034  0.72850254    -0.22300
C2418       C  0.94145707  0.66047018  0.74331082     0.09600
C2419       C  0.92329184  0.66528928  0.76414856     0.10000
C2420       C  0.90218932  0.64736065  0.76842486    -0.17300
C2421       C  0.89859965  0.62463944  0.75225543    -0.27700
C2422       C  0.91825140  0.61882906  0.73268721     0.18400
C2423       C  0.96089230  0.68105802  0.73451394     0.12300
C2424       C  0.92594829  0.68958991  0.78159355    -0.12000
H2425       H  0.88773395  0.65179864  0.78381900     0.12600
C2426       C  0.91669867  0.59455770  0.71501517    -0.22900
H2427       H  0.95342448  0.63329398  0.71259951     0.08300
C2428       C  0.98870023  0.67791257  0.73774761     0.04600
C2429       C  0.00609542  0.69684133  0.72658222    -0.20100
C2430       C  0.99631448  0.71892653  0.71239071    -0.12400
C2431       C  0.96836663  0.72219218  0.70945212     0.13300
C2432       C  0.95111382  0.70330867  0.72071176    -0.22800
C2433       C  0.99996734  0.65467444  0.75301948    -0.05900
H2434       H  0.02747499  0.69425010  0.72866181     0.14800
C2435       C  0.95587889  0.74433154  0.69335639    -0.16100
H2436       H  0.92975999  0.70544760  0.71786543     0.09200
H2437       H  0.93379045  0.59343490  0.70102040     0.07000
H2438       H  0.89816492  0.59517272  0.70290376     0.08200
H2439       H  0.91712293  0.57621785  0.72734422     0.07300
H2440       H  0.92378346  0.70796096  0.76951954     0.02100
H2441       H  0.94584703  0.68956368  0.79134345     0.02600
H2442       H  0.91048382  0.69004876  0.79738441     0.06100
H2443       H  0.02208037  0.65555946  0.75423533     0.05100
H2444       H  0.99442764  0.63567418  0.74313657    -0.00700
H2445       H  0.99192578  0.65480116  0.77358441     0.00800
H2446       H  0.94343924  0.73560403  0.67724865     0.04500
H2447       H  0.97056360  0.75764760  0.68378023     0.06400
H2448       H  0.94291929  0.75662697  0.70641643     0.07300
C2449       C  0.13753692  0.82164507  0.85071737    -0.22300
C2450       C  0.14309858  0.80672739  0.82780923     0.09600
C2451       C  0.16868594  0.79557298  0.82433815     0.10000
C2452       C  0.18821119  0.79970053  0.84384006    -0.17300
C2453       C  0.18323812  0.81540596  0.86652950    -0.27700
C2454       C  0.15726505  0.82621206  0.87018052     0.18400
C2455       C  0.12316336  0.80545134  0.80609669     0.12300
C2456       C  0.17589283  0.78043295  0.79938516    -0.12000
H2457       H  0.20787197  0.79125910  0.84080524     0.12600
C2458       C  0.15035593  0.84353542  0.89370368    -0.22900
H2459       H  0.11789525  0.83043896  0.85291779     0.08300
C2460       C  0.10769410  0.78241475  0.80135321     0.04600
C2461       C  0.09341675  0.78016877  0.77736482    -0.20100
C2462       C  0.09431134  0.80056051  0.75833774    -0.12400
C2463       C  0.10785145  0.82458629  0.76423584     0.13300
C2464       C  0.12216240  0.82671663  0.78810442    -0.22800
C2465       C  0.10660528  0.76017717  0.82141008    -0.05900
H2466       H  0.08267428  0.76195534  0.77287336     0.14800
C2467       C  0.10742023  0.84790326  0.74529246    -0.16100
H2468       H  0.13371975  0.84453083  0.79217541     0.09200
H2469       H  0.15235417  0.83191621  0.91237160     0.07000
H2470       H  0.12949116  0.85096057  0.89263729     0.08200
H2471       H  0.16375379  0.86114660  0.89433627     0.07300
H2472       H  0.17326597  0.79350021  0.78176860     0.02100
H2473       H  0.16297710  0.76264600  0.79712264     0.02600
H2474       H  0.19694922  0.77350327  0.79973351     0.06100
H2475       H  0.09348325  0.74367895  0.81460702     0.05100
H2476       H  0.09862179  0.76796209  0.84048853    -0.00700
H2477       H  0.12681092  0.75187478  0.82493504     0.00800
H2478       H  0.11794604  0.86549947  0.75367865     0.04500
H2479       H  0.08646099  0.85380175  0.74112796     0.06400
H2480       H  0.11741327  0.84253636  0.72636520     0.07300
C2481       C  0.87465995  0.04631257  0.30771566    -0.22300
C2482       C  0.88181801  0.06365337  0.28712988     0.09600
C2483       C  0.88002805  0.05491856  0.26050202     0.10000
C2484       C  0.86933754  0.02964139  0.25494826    -0.17300
C2485       C  0.86023035  0.01295719  0.27543696    -0.27700
C2486       C  0.86431329  0.02086834  0.30225977     0.18400
C2487       C  0.88842064  0.09175414  0.29357569     0.12300
C2488       C  0.88821322  0.07282448  0.23792306    -0.12000
H2489       H  0.86647908  0.02364877  0.23441425     0.12600
C2490       C  0.85821626  0.00303791  0.32559418    -0.22900
H2491       H  0.87656721  0.05293089  0.32817605     0.08300
C2492       C  0.86802805  0.11084880  0.29652514     0.04600
C2493       C  0.87478807  0.13764607  0.30050233    -0.20100
C2494       C  0.90158606  0.14620586  0.30136463    -0.12400
C2495       C  0.92208989  0.12666179  0.29924248     0.13300
C2496       C  0.91514347  0.09969981  0.29541282    -0.22800
C2497       C  0.83902966  0.10301663  0.29476249    -0.05900
H2498       H  0.85878734  0.15209198  0.30212114     0.14800
C2499       C  0.95127221  0.13371029  0.30094981    -0.16100
H2500       H  0.93062750  0.08475421  0.29324162     0.09200
H2501       H  0.84168452  0.01174882  0.33744880     0.07000
H2502       H  0.87619495  0.00139677  0.33843827     0.08200
H2503       H  0.85280781  0.98246968  0.31961927     0.07300
H2504       H  0.90964032  0.07804616  0.23996924     0.02100
H2505       H  0.87610770  0.09137391  0.23823701     0.02600
H2506       H  0.88532664  0.06304062  0.21829636     0.06100
H2507       H  0.82557182  0.12044914  0.29723813     0.05100
H2508       H  0.83428346  0.08839961  0.31061360    -0.00700
H2509       H  0.83486398  0.09390672  0.27504833     0.00800
H2510       H  0.96416520  0.11569246  0.30036387     0.04500
H2511       H  0.95538669  0.14429887  0.31993028     0.06400
H2512       H  0.95699907  0.14640935  0.28383933     0.07300
C2513       C  0.76895744  0.81229237  0.10812008    -0.22300
C2514       C  0.79135669  0.81445286  0.12477311     0.09600
C2515       C  0.81145274  0.79477699  0.12372881     0.10000
C2516       C  0.80768549  0.77228340  0.10770688    -0.17300
C2517       C  0.78433598  0.76893079  0.09266405    -0.27700
C2518       C  0.76517609  0.78969556  0.09191314     0.18400
C2519       C  0.79197452  0.83504588  0.14590341     0.12300
C2520       C  0.83649225  0.79705099  0.14026418    -0.12000
H2521       H  0.82247128  0.75647548  0.10797726     0.12600
C2522       C  0.73997926  0.78816070  0.07559874    -0.22900
H2523       H  0.75365668  0.82757037  0.10888655     0.08300
C2524       C  0.80058486  0.86130968  0.14124545     0.04600
C2525       C  0.80381415  0.87879710  0.16291180    -0.20100
C2526       C  0.79952344  0.87033126  0.18932095    -0.12400
C2527       C  0.79089515  0.84361918  0.19370311     0.13300
C2528       C  0.78648790  0.82681599  0.17185919    -0.22800
C2529       C  0.80723260  0.87049655  0.11356131    -0.05900
H2530       H  0.81049291  0.89898092  0.15916370     0.14800
C2531       C  0.78793138  0.83160025  0.22106438    -0.16100
H2532       H  0.78017600  0.80639828  0.17509045     0.09200
H2533       H  0.73966854  0.80479933  0.06106302     0.07000
H2534       H  0.72239896  0.79016080  0.08883260     0.08200
H2535       H  0.73796925  0.76923239  0.06443492     0.07300
H2536       H  0.83149626  0.79692948  0.16174941     0.02100
H2537       H  0.84696961  0.81590269  0.13536866     0.02600
H2538       H  0.85043142  0.78024288  0.13647496     0.06100
H2539       H  0.81409628  0.89154229  0.11335688     0.05100
H2540       H  0.78929599  0.86891182  0.10067495    -0.00700
H2541       H  0.82338807  0.85785596  0.10520648     0.00800
H2542       H  0.77176276  0.84165948  0.23216021     0.04500
H2543       H  0.80705314  0.83325488  0.23213420     0.06400
H2544       H  0.78269776  0.81009905  0.22018390     0.07300
C2545       C  0.93874895  0.87749391  0.24517648    -0.22300
C2546       C  0.93536823  0.84992696  0.24185450     0.09600
C2547       C  0.91009787  0.83848220  0.24628490     0.10000
C2548       C  0.88850142  0.85502614  0.25266726    -0.17300
C2549       C  0.89131585  0.88290724  0.25449577    -0.27700
C2550       C  0.91713544  0.89414787  0.25177914     0.18400
C2551       C  0.95776810  0.83353608  0.23158791     0.12300
C2552       C  0.90555284  0.80894728  0.24291261    -0.12000
H2553       H  0.86890205  0.84613719  0.25468166     0.12600
C2554       C  0.92286867  0.92332286  0.25608291    -0.22900
H2555       H  0.95834587  0.88612575  0.24220438     0.08300
C2556       C  0.96465413  0.83414537  0.20440720     0.04600
C2557       C  0.98384545  0.81629159  0.19474695    -0.20100
C2558       C  0.99603568  0.79739268  0.21144043    -0.12400
C2559       C  0.98964622  0.79726366  0.23887693     0.13300
C2560       C  0.97067765  0.81551071  0.24861966    -0.22800
C2561       C  0.95102579  0.85293501  0.18534223    -0.05900
H2562       H  0.98861473  0.81644280  0.17372247     0.14800
C2563       C  0.00293428  0.77833868  0.25803171    -0.16100
H2564       H  0.96531422  0.81527367  0.26949543     0.09200
H2565       H  0.92907257  0.93255542  0.23701733     0.07000
H2566       H  0.93936113  0.92547792  0.27071185     0.08200
H2567       H  0.90566135  0.93445947  0.26427599     0.07300
H2568       H  0.91794825  0.79773277  0.25739002     0.02100
H2569       H  0.91097303  0.80277378  0.22239909     0.02600
H2570       H  0.88437415  0.80343632  0.24632183     0.06100
H2571       H  0.95831791  0.85027992  0.16465551     0.05100
H2572       H  0.95494062  0.87387499  0.19131780    -0.00700
H2573       H  0.92918123  0.84925536  0.18542073     0.00800
H2574       H  0.99672836  0.78222328  0.27887995     0.04500
H2575       H  0.02493887  0.78066309  0.25692495     0.06400
H2576       H  0.99740041  0.75747449  0.25321521     0.07300
C2577       C  0.75546989  0.00958062  0.15417495    -0.22300
C2578       C  0.75453542  0.03675002  0.16078652     0.09600
C2579       C  0.76198569  0.04495200  0.18663707     0.10000
C2580       C  0.77106492  0.02593779  0.20497043    -0.17300
C2581       C  0.77302127  0.99885120  0.19815269    -0.27700
C2582       C  0.76433494  0.99043347  0.17262984     0.18400
C2583       C  0.74699709  0.05672079  0.14027569     0.12300
C2584       C  0.76124167  0.07392764  0.19463724    -0.12000
H2585       H  0.77764179  0.03242922  0.22448805     0.12600
C2586       C  0.76335896  0.96152452  0.16441391    -0.22900
H2587       H  0.74930455  0.00329237  0.13446244     0.08300
C2588       C  0.76551568  0.06534290  0.12102445     0.04600
C2589       C  0.75948419  0.08766520  0.10525574    -0.20100
C2590       C  0.73552162  0.10192168  0.10857614    -0.12400
C2591       C  0.71613128  0.09193679  0.12654966     0.13300
C2592       C  0.72211923  0.06936745  0.14202575    -0.22800
C2593       C  0.79219198  0.05179474  0.11804456    -0.05900
H2594       H  0.77433765  0.09498014  0.09143813     0.14800
C2595       C  0.68913905  0.10487495  0.12970950    -0.16100
H2596       H  0.70783789  0.06231227  0.15656620     0.09200
H2597       H  0.77721989  0.95810124  0.14754812     0.07000
H2598       H  0.74278510  0.95645003  0.15792347     0.08200
H2599       H  0.76858684  0.94763680  0.18071491     0.07300
H2600       H  0.74047433  0.08153895  0.19350652     0.02100
H2601       H  0.77412297  0.08576611  0.18114762     0.02600
H2602       H  0.76847603  0.07694955  0.21531715     0.06100
H2603       H  0.80454826  0.06135051  0.10242409     0.05100
H2604       H  0.78922492  0.03059978  0.11240467    -0.00700
H2605       H  0.80334742  0.05279329  0.13712150     0.00800
H2606       H  0.67932452  0.10676747  0.10998308     0.04500
H2607       H  0.69115888  0.12481497  0.13904226     0.06400
H2608       H  0.67583566  0.09291684  0.14269173     0.07300
C2609       C  0.68596369  0.87632489  0.27144376    -0.22300
C2610       C  0.67341602  0.88215443  0.29567036     0.09600
C2611       C  0.68342540  0.90296428  0.31182868     0.10000
C2612       C  0.70677055  0.91637282  0.30409196    -0.17300
C2613       C  0.72031381  0.90913928  0.28078614    -0.27700
C2614       C  0.70923356  0.88968523  0.26374650     0.18400
C2615       C  0.65216892  0.86383663  0.30493458     0.12300
C2616       C  0.66988257  0.91056469  0.33746221    -0.12000
H2617       H  0.71541510  0.93131156  0.31710815     0.12600
C2618       C  0.72221145  0.88276017  0.23763989    -0.22900
H2619       H  0.67820976  0.86036400  0.25910196     0.08300
C2620       C  0.62703012  0.86228101  0.29229206     0.04600
C2621       C  0.60945338  0.84153250  0.29908636    -0.20100
C2622       C  0.61663371  0.82231699  0.31809632    -0.12400
C2623       C  0.64094101  0.82525005  0.33221973     0.13300
C2624       C  0.65856765  0.84564165  0.32507812    -0.22800
C2625       C  0.61898595  0.88221300  0.27138815    -0.05900
H2626       H  0.59069110  0.83948649  0.28852026     0.14800
C2627       C  0.64887762  0.80746321  0.35508840    -0.16100
H2628       H  0.67779690  0.84697897  0.33492386     0.09200
H2629       H  0.71084623  0.86726495  0.22662166     0.07000
H2630       H  0.74258723  0.87508496  0.24114936     0.08200
H2631       H  0.72338512  0.90084008  0.22498724     0.07300
H2632       H  0.67019641  0.89356084  0.35153398     0.02100
H2633       H  0.64887286  0.91629963  0.33336554     0.02600
H2634       H  0.67994571  0.92769165  0.34726683     0.06100
H2635       H  0.59840113  0.87854013  0.26403782     0.05100
H2636       H  0.63269469  0.88101683  0.25413179    -0.00700
H2637       H  0.61973190  0.90263739  0.27990518     0.00800
H2638       H  0.66692591  0.79580961  0.34969528     0.04500
H2639       H  0.63288828  0.79352617  0.36114106     0.06400
H2640       H  0.65350863  0.81999205  0.37271203     0.07300
C2641       C  0.90083885  0.80514423  0.56501568    -0.22300
C2642       C  0.90980363  0.81232407  0.59042512     0.09600
C2643       C  0.89212778  0.82485329  0.60824020     0.10000
C2644       C  0.86546701  0.82865814  0.60076252    -0.17300
C2645       C  0.85557256  0.81964894  0.57605125    -0.27700
C2646       C  0.87395594  0.80849182  0.55752420     0.18400
C2647       C  0.93686025  0.80418442  0.59922209     0.12300
C2648       C  0.90106732  0.83304822  0.63571826    -0.12000
H2649       H  0.85202507  0.83771284  0.61501208     0.12600
C2650       C  0.86564715  0.79912580  0.53023533    -0.22900
H2651       H  0.91475262  0.79574416  0.55142964     0.08300
C2652       C  0.94198581  0.77777126  0.60743341     0.04600
C2653       C  0.96664473  0.77154843  0.61909253    -0.20100
C2654       C  0.98611748  0.79121853  0.62329855    -0.12400
C2655       C  0.98146486  0.81740453  0.61375939     0.13300
C2656       C  0.95682627  0.82353273  0.60189652    -0.22800
C2657       C  0.92091642  0.75645954  0.60520481    -0.05900
H2658       H  0.97010250  0.75151577  0.62642666     0.14800
C2659       C  0.00189085  0.83933194  0.61550836    -0.16100
H2660       H  0.95287187  0.84374203  0.59532396     0.09200
H2661       H  0.85111637  0.78253279  0.53194304     0.07000
H2662       H  0.88287354  0.79158219  0.51854939     0.08200
H2663       H  0.85671207  0.81593290  0.51895302     0.07300
H2664       H  0.91721446  0.84809318  0.63425591     0.02100
H2665       H  0.90856837  0.81537490  0.64672169     0.02600
H2666       H  0.88452199  0.84196724  0.64741270     0.06100
H2667       H  0.92799496  0.73706786  0.61320839     0.05100
H2668       H  0.91541360  0.75345517  0.58402364    -0.00700
H2669       H  0.90292325  0.76249296  0.61659012     0.00800
H2670       H  0.00566692  0.84741729  0.59531623     0.04500
H2671       H  0.02134691  0.83253601  0.62348546     0.06400
H2672       H  0.99404732  0.85561330  0.62827347     0.07300
C2673       C  0.79131256  0.91299613  0.45668102    -0.22300
C2674       C  0.79483692  0.89722022  0.43385853     0.09600
C2675       C  0.79214538  0.86931427  0.43570105     0.10000
C2676       C  0.78544803  0.85791424  0.46012483    -0.17300
C2677       C  0.78128290  0.87352145  0.48304158    -0.27700
C2678       C  0.78484566  0.90153353  0.48139124     0.18400
C2679       C  0.79955369  0.91000410  0.40770555     0.12300
C2680       C  0.79532260  0.85148243  0.41169945    -0.12000
H2681       H  0.78266705  0.83650102  0.46107178     0.12600
C2682       C  0.78293380  0.91993128  0.50504658    -0.22900
H2683       H  0.79369140  0.93442828  0.45519478     0.08300
C2684       C  0.77864903  0.92293021  0.39400033     0.04600
C2685       C  0.78241104  0.93047010  0.36744716    -0.20100
C2686       C  0.80628744  0.92471796  0.35399050    -0.12400
C2687       C  0.82783761  0.91331016  0.36825139     0.13300
C2688       C  0.82418376  0.90620782  0.39499974    -0.22800
C2689       C  0.75178605  0.92722553  0.40676296    -0.05900
H2690       H  0.76585967  0.93917382  0.35657130     0.14800
C2691       C  0.85482174  0.90830131  0.35602014    -0.16100
H2692       H  0.84033869  0.89663504  0.40573797     0.09200
H2693       H  0.76567415  0.93358964  0.50247670     0.07000
H2694       H  0.80143818  0.93201505  0.50648656     0.08200
H2695       H  0.78092982  0.90935492  0.52420491     0.07300
H2696       H  0.81600299  0.85278447  0.40399550     0.02100
H2697       H  0.78108818  0.85760817  0.39589685     0.02600
H2698       H  0.79137682  0.83024904  0.41653208     0.06100
H2699       H  0.73741705  0.93677373  0.39287623     0.05100
H2700       H  0.75388797  0.94039476  0.42438867    -0.00700
H2701       H  0.74329287  0.90778660  0.41302146     0.00800
H2702       H  0.87044020  0.91803006  0.36834951     0.04500
H2703       H  0.85667362  0.91653216  0.33567731     0.06400
H2704       H  0.85878781  0.88652476  0.35535553     0.07300
C2705       C  0.64887617  0.79645800  0.63544764    -0.22300
C2706       C  0.64691403  0.81127807  0.65903172     0.09600
C2707       C  0.66439025  0.83289464  0.66350310     0.10000
C2708       C  0.68387237  0.83883741  0.64449200    -0.17300
C2709       C  0.68637220  0.82361827  0.62122327    -0.27700
C2710       C  0.66851083  0.80231427  0.61641664     0.18400
C2711       C  0.62894384  0.80206918  0.68041920     0.12300
C2712       C  0.66320023  0.84902244  0.68882410    -0.12000
H2713       H  0.69778405  0.85499115  0.64813508     0.12600
C2714       C  0.67045046  0.78454535  0.59227461    -0.22900
H2715       H  0.63567860  0.77961970  0.63235266     0.08300
C2716       C  0.60382095  0.81389416  0.68496369     0.04600
C2717       C  0.59022652  0.80833274  0.70875579    -0.20100
C2718       C  0.60138707  0.79124337  0.72790176    -0.12400
C2719       C  0.62528561  0.77735726  0.72193781     0.13300
C2720       C  0.63880233  0.78306648  0.69826418    -0.22800
C2721       C  0.59177117  0.83273310  0.66498332    -0.05900
H2722       H  0.57161914  0.81847937  0.71305314     0.14800
C2723       C  0.63666577  0.75648555  0.74036332    -0.16100
H2724       H  0.65784064  0.77361807  0.69422121     0.09200
H2725       H  0.65147149  0.78549988  0.58089163     0.07000
H2726       H  0.67389294  0.76364522  0.59869130     0.08200
H2727       H  0.68690180  0.79012296  0.57869640     0.07300
H2728       H  0.66673107  0.83586794  0.70621789     0.02100
H2729       H  0.64332360  0.85856149  0.69079937     0.02600
H2730       H  0.67850733  0.86502228  0.68916155     0.06100
H2731       H  0.57193211  0.84010786  0.67152329     0.05100
H2732       H  0.58920309  0.82227378  0.64566846    -0.00700
H2733       H  0.60499029  0.85020669  0.66206934     0.00800
H2734       H  0.65413745  0.74621534  0.73141600     0.04500
H2735       H  0.62128530  0.74116120  0.74463747     0.06400
H2736       H  0.64350654  0.76570420  0.75922545     0.07300
C2737       C  0.74183229  0.95473151  0.62483638    -0.22300
C2738       C  0.74572023  0.95077875  0.65216864     0.09600
C2739       C  0.75714439  0.92675984  0.66114802     0.10000
C2740       C  0.76327725  0.90669256  0.64269901    -0.17300
C2741       C  0.75751189  0.90957603  0.61539164    -0.27700
C2742       C  0.74739598  0.93440971  0.60627800     0.18400
C2743       C  0.73482589  0.97059786  0.67123018     0.12300
C2744       C  0.76196697  0.92194932  0.69035053    -0.12000
H2745       H  0.77101466  0.88789216  0.65006438     0.12600
C2746       C  0.74212031  0.93972023  0.57723693    -0.22900
H2747       H  0.73316788  0.97337974  0.61814583     0.08300
C2748       C  0.74895266  0.99376596  0.67865385     0.04600
C2749       C  0.73727039  0.01185378  0.69666059    -0.20100
C2750       C  0.71168683  0.00728112  0.70710716    -0.12400
C2751       C  0.69792731  0.98362272  0.70015989     0.13300
C2752       C  0.70965506  0.96567130  0.68223836    -0.22800
C2753       C  0.77628641  0.99926219  0.66761367    -0.05900
H2754       H  0.74788102  0.02983415  0.70220205     0.14800
C2755       C  0.67126489  0.97672222  0.71224790    -0.16100
H2756       H  0.69915550  0.94759632  0.67673612     0.09200
H2757       H  0.76035955  0.93544187  0.56547546     0.07000
H2758       H  0.73650803  0.96085344  0.57370380     0.08200
H2759       H  0.72534808  0.92725014  0.56999739     0.07300
H2760       H  0.74278338  0.92267643  0.70132739     0.02100
H2761       H  0.77554929  0.93749256  0.69835399     0.02600
H2762       H  0.77123570  0.90216155  0.69400489     0.06100
H2763       H  0.78468151  0.01816126  0.67554079     0.05100
H2764       H  0.77520206  0.00085175  0.64561728    -0.00700
H2765       H  0.79003924  0.98276495  0.67303189     0.00800
H2766       H  0.66429417  0.95668343  0.70588959     0.04500
H2767       H  0.65590679  0.99137305  0.70599580     0.06400
H2768       H  0.67287574  0.97668676  0.73428535     0.07300
C2769       C  0.80088865  0.69858651  0.60437425    -0.22300
C2770       C  0.78367307  0.69291074  0.62548397     0.09600
C2771       C  0.76092712  0.70884899  0.62973632     0.10000
C2772       C  0.75695527  0.73141698  0.61390420    -0.17300
C2773       C  0.77550054  0.73866986  0.59430798    -0.27700
C2774       C  0.79734300  0.72146586  0.58876275     0.18400
C2775       C  0.79242042  0.67359985  0.64576157     0.12300
C2776       C  0.74159134  0.70273338  0.65182123    -0.12000
H2777       H  0.74015412  0.74444755  0.61796942     0.12600
C2778       C  0.81863890  0.72726151  0.56836988    -0.22900
H2779       H  0.81838278  0.68618714  0.60138221     0.08300
C2780       C  0.78779906  0.64601479  0.64336054     0.04600
C2781       C  0.79581044  0.62904867  0.66409572    -0.20100
C2782       C  0.80812880  0.63932413  0.68702517    -0.12400
C2783       C  0.81369659  0.66693287  0.68880523     0.13300
C2784       C  0.80557279  0.68369490  0.66818030    -0.22800
C2785       C  0.77393568  0.63473464  0.61928903    -0.05900
H2786       H  0.79166315  0.60787731  0.66282652     0.14800
C2787       C  0.82860768  0.67943642  0.71176956    -0.16100
H2788       H  0.80945176  0.70492713  0.66959852     0.09200
H2789       H  0.81910650  0.71089383  0.55347669     0.07000
H2790       H  0.83839607  0.72827736  0.57836343     0.08200
H2791       H  0.81591960  0.74619474  0.55757932     0.07300
H2792       H  0.75190292  0.70375347  0.67135131     0.02100
H2793       H  0.73328896  0.68241295  0.64899721     0.02600
H2794       H  0.72471242  0.71709914  0.65221310     0.06100
H2795       H  0.77164347  0.61275902  0.62068431     0.05100
H2796       H  0.78569968  0.63929023  0.60117135    -0.00700
H2797       H  0.75377171  0.64372119  0.61734985     0.00800
H2798       H  0.84614218  0.69050467  0.70406257     0.04500
H2799       H  0.83631945  0.66473793  0.72628126     0.06400
H2800       H  0.81531236  0.69364780  0.72233045     0.07300
C2801       C  0.67465421  0.75482763  0.47951700    -0.22300
C2802       C  0.66297147  0.77158680  0.46047399     0.09600
C2803       C  0.66923423  0.79897954  0.46040336     0.10000
C2804       C  0.68741346  0.80895918  0.47910779    -0.17300
C2805       C  0.69968812  0.79222550  0.49789210    -0.27700
C2806       C  0.69271332  0.76482627  0.49851275     0.18400
C2807       C  0.64522282  0.76014387  0.43979975     0.12300
C2808       C  0.65730913  0.81755088  0.44005843    -0.12000
H2809       H  0.69264143  0.82992340  0.47858676     0.12600
C2810       C  0.70297714  0.74574188  0.51930053    -0.22900
H2811       H  0.66957002  0.73382111  0.47959618     0.08300
C2812       C  0.65585722  0.74883502  0.41644054     0.04600
C2813       C  0.63861428  0.74173590  0.39562674    -0.20100
C2814       C  0.61093765  0.74616276  0.39734294    -0.12400
C2815       C  0.60015365  0.75571646  0.42163164     0.13300
C2816       C  0.61751299  0.76284710  0.44243987    -0.22800
C2817       C  0.68554337  0.74567009  0.41290657    -0.05900
H2818       H  0.64710730  0.73452611  0.37714485     0.14800
C2819       C  0.57060891  0.75856404  0.42642508    -0.16100
H2820       H  0.60942517  0.77120703  0.46063036     0.09200
H2821       H  0.71517635  0.72999960  0.50962613     0.07000
H2822       H  0.68581922  0.73619325  0.52947247     0.08200
H2823       H  0.71509475  0.75548560  0.53494560     0.07300
H2824       H  0.63525293  0.81779016  0.44199702     0.02100
H2825       H  0.66275744  0.81070162  0.41978975     0.02600
H2826       H  0.66463017  0.83829972  0.44255481     0.06100
H2827       H  0.69057326  0.73687136  0.39325648     0.05100
H2828       H  0.69361741  0.73235072  0.42859244    -0.00700
H2829       H  0.69541025  0.76543227  0.41436024     0.00800
H2830       H  0.56518087  0.74789458  0.44497973     0.04500
H2831       H  0.55832037  0.74979342  0.41031567     0.06400
H2832       H  0.56543836  0.77997460  0.42872150     0.07300
loop_ 
_geom_bond_atom_site_label_1 
_geom_bond_atom_site_label_2 
_geom_bond_distance 
_geom_bond_site_symmetry_2 
_ccdc_geom_bond_type 
Fe1          O17   2.062       .  S
Fe1           O7   2.051       .  S
Fe1          O14   2.055       .  S
Fe1           O6   2.058       .  S
Fe1          O12   1.968       .  S
Fe2           O5   2.059       .  S
Fe2           O9   2.070       .  S
Fe2          O13   2.075       .  S
Fe2          O18   2.080       .  S
Fe2          O12   1.979       .  S
Fe3          O21   2.068       .  S
Fe3           O8   2.053       .  S
Fe3          O15   2.060       .  S
Fe3           O4   2.075       .  S
Fe3          O12   1.977       .  S
O4           C11   1.270       .  A
O5           C19   1.266       .  A
O6           C11   1.270       .  A
O7           C10   1.267       .  A
O8           C20   1.271       .  A
O9           C22   1.271       .  A
C10          O15   1.265       .  A
C10        C2773   1.473       .  S
C11        C2645   1.499       .  S
O13          C16   1.268       .  A
O14          C16   1.266       .  A
C16        C2741   1.494       .  S
O17          C22   1.270       .  A
O18          C20   1.275       .  A
C19          O21   1.267       .  A
C19        C2805   1.481       .  S
C20        C2677   1.486       .  S
C22        C2709   1.470       .  S
Fe23         O39   2.060       .  S
Fe23         O29   2.053       .  S
Fe23         O36   2.059       .  S
Fe23         O28   2.058       .  S
Fe23         O34   1.963       .  S
Fe24         O27   2.069       .  S
Fe24         O31   2.068       .  S
Fe24         O35   2.072       .  S
Fe24         O40   2.056       .  S
Fe24         O34   1.976       .  S
Fe25         O43   2.065       .  S
Fe25         O30   2.088       .  S
Fe25         O37   2.086       .  S
Fe25         O26   2.070       .  S
Fe25         O34   1.974       .  S
O26          C33   1.268       .  A
O27          C41   1.268       .  A
O28          C33   1.267       .  A
O29          C32   1.268       .  A
O30          C42   1.276       .  A
O31          C44   1.268       .  A
C32          O37   1.275       .  A
C32        C2526   1.496       .  S
C33        C2549   1.488       .  S
O35          C38   1.270       .  A
O36          C38   1.268       .  A
C38        C2686   1.479       .  S
O39          C44   1.267       .  A
O40          C42   1.270       .  A
C41          O43   1.267       .  A
C41        C2581   1.482       .  S
C42        C2485   1.484   1_565  S
C44        C2613   1.472       .  S
Fe45         O61   2.067       .  S
Fe45         O51   2.057       .  S
Fe45         O58   2.063       .  S
Fe45         O50   2.071       .  S
Fe45         O56   1.962       .  S
Fe46         O49   2.079       .  S
Fe46         O53   2.068       .  S
Fe46         O57   2.081       .  S
Fe46         O62   2.063       .  S
Fe46         O56   1.966       .  S
Fe47         O65   2.057       .  S
Fe47         O52   2.084       .  S
Fe47         O59   2.080       .  S
Fe47         O48   2.065       .  S
Fe47         O56   1.963       .  S
O48          C55   1.267       .  A
O49          C63   1.268       .  A
O50          C55   1.267       .  A
O51          C54   1.271       .  A
O52          C64   1.277       .  A
O53          C66   1.270       .  A
C54          O59   1.274       .  A
C54        C2325   1.481       .  S
C55        C2357   1.480       .  S
O57          C60   1.270       .  A
O58          C60   1.271       .  A
C60        C2389   1.490       .  S
O61          C66   1.269       .  A
O62          C64   1.273       .  A
C63          O65   1.264       .  A
C63        C2430   1.480   1_455  S
C64        C2654   1.480   1_455  S
C66        C2462   1.471       .  S
Fe67         O83   2.053       .  S
Fe67         O73   2.074       .  S
Fe67         O80   2.071       .  S
Fe67         O72   2.060       .  S
Fe67         O78   1.963       .  S
Fe68         O71   2.061       .  S
Fe68         O75   2.084       .  S
Fe68         O79   2.061       .  S
Fe68         O84   2.078       .  S
Fe68         O78   1.971       .  S
Fe69         O87   2.065       .  S
Fe69         O74   2.070       .  S
Fe69         O81   2.065       .  S
Fe69         O70   2.081       .  S
Fe69         O78   1.969       .  S
O70          C77   1.271       .  A
O71          C85   1.264       .  A
O72          C77   1.268       .  A
O73          C76   1.270       .  A
O74          C86   1.275       .  A
O75          C88   1.275       .  A
C76          O81   1.269       .  A
C76        C2133   1.480       .  S
C77        C2174   1.490       .  S
O79          C82   1.265       .  A
O80          C82   1.268       .  A
C82        C2229   1.485       .  S
O83          C88   1.270       .  A
O84          C86   1.276       .  A
C85          O87   1.266       .  A
C85        C2197   1.474       .  S
C86        C2270   1.480       .  S
C88        C2302   1.480       .  S
Fe89        O105   2.067       .  S
Fe89         O95   2.055       .  S
Fe89        O102   2.059       .  S
Fe89         O94   2.066       .  S
Fe89        O100   1.953       .  S
Fe90         O93   2.070       .  S
Fe90         O97   2.070       .  S
Fe90        O101   2.086       .  S
Fe90        O106   2.074       .  S
Fe90        O100   1.965       .  S
Fe91        O109   2.071       .  S
Fe91         O96   2.074       .  S
Fe91        O103   2.077       .  S
Fe91         O92   2.071       .  S
Fe91        O100   1.964       .  S
O92          C99   1.269       .  A
O93         C107   1.269       .  A
O94          C99   1.271       .  A
O95          C98   1.268       .  A
O96         C108   1.273       .  A
O97         C110   1.272       .  A
C98         O103   1.270       .  A
C98        C2014   1.487       .  S
C99        C2261   1.500       .  S
O101        C104   1.272       .  A
O102        C104   1.266       .  A
C104       C2069   1.497       .  S
O105        C110   1.272       .  A
O106        C108   1.275       .  A
C107        O109   1.269       .  A
C107       C2101   1.480       .  S
C108       C2398   1.477   1_545  S
C110       C2037   1.484       .  S
Fe111       O127   2.059       .  S
Fe111       O117   2.056       .  S
Fe111       O124   2.058       .  S
Fe111       O116   2.057       .  S
Fe111       O122   1.967       .  S
Fe112       O115   2.060       .  S
Fe112       O119   2.075       .  S
Fe112       O123   2.077       .  S
Fe112       O128   2.083       .  S
Fe112       O122   1.973       .  S
Fe113       O131   2.065       .  S
Fe113       O118   2.066       .  S
Fe113       O125   2.070       .  S
Fe113       O114   2.074       .  S
Fe113       O122   1.974       .  S
O114        C121   1.268       .  A
O115        C129   1.266       .  A
O116        C121   1.268       .  A
O117        C120   1.269       .  A
O118        C130   1.272       .  A
O119        C132   1.270       .  A
C120        O125   1.270       .  A
C120       C1973   1.478       .  S
C121       C2494   1.498       .  S
O123        C126   1.270       .  A
O124        C126   1.268       .  A
C126       C1909   1.488       .  S
O127        C132   1.268       .  A
O128        C130   1.275       .  A
C129        O131   1.267       .  A
C129       C1950   1.480       .  S
C130       C2238   1.481   1_655  S
C132       C1877   1.479       .  S
Fe133       O149   2.055       .  S
Fe133       O139   2.065       .  S
Fe133       O146   2.068       .  S
Fe133       O138   2.062       .  S
Fe133       O144   1.956       .  S
Fe134       O137   2.067       .  S
Fe134       O141   2.069       .  S
Fe134       O145   2.075       .  S
Fe134       O150   2.067       .  S
Fe134       O144   1.967       .  S
Fe135       O153   2.072       .  S
Fe135       O140   2.074       .  S
Fe135       O147   2.078       .  S
Fe135       O136   2.080       .  S
Fe135       O144   1.966       .  S
O136        C143   1.271       .  A
O137        C151   1.269       .  A
O138        C143   1.269       .  A
O139        C142   1.269       .  A
O140        C152   1.273       .  A
O141        C154   1.270       .  A
C142        O147   1.271       .  A
C142       C1813   1.480       .  S
C143       C1845   1.484       .  S
O145        C148   1.271       .  A
O146        C148   1.270       .  A
C148       C1749   1.486       .  S
O149        C154   1.267       .  A
O150        C152   1.271       .  A
C151        O153   1.269       .  A
C151       C1918   1.483       .  S
C152       C1726   1.479       .  S
C154       C1790   1.485       .  S
Fe155       O171   2.063       .  S
Fe155       O161   2.054       .  S
Fe155       O168   2.054       .  S
Fe155       O160   2.060       .  S
Fe155       O166   1.970       .  S
Fe156       O159   2.068       .  S
Fe156       O163   2.075       .  S
Fe156       O167   2.074       .  S
Fe156       O172   2.075       .  S
Fe156       O166   1.978       .  S
Fe157       O175   2.065       .  S
Fe157       O162   2.068       .  S
Fe157       O169   2.074       .  S
Fe157       O158   2.067       .  S
Fe157       O166   1.977       .  S
O158        C165   1.267       .  A
O159        C173   1.266       .  A
O160        C165   1.266       .  A
O161        C164   1.269       .  A
O162        C174   1.272       .  A
O163        C176   1.272       .  A
C164        O169   1.271       .  A
C164       C1886   1.478       .  S
C165       C1717   1.483       .  S
O167        C170   1.268       .  A
O168        C170   1.267       .  A
C170       C1662   1.486       .  S
O171        C176   1.269       .  A
O172        C174   1.275       .  A
C173        O175   1.266       .  A
C173       C1694   1.481       .  S
C174       C1589   1.489       .  S
C176       C1621   1.483       .  S
Fe177       O193   2.051       .  S
Fe177       O183   2.073       .  S
Fe177       O190   2.063       .  S
Fe177       O182   2.056       .  S
Fe177       O188   1.950       .  S
Fe178       O181   2.071       .  S
Fe178       O185   2.083       .  S
Fe178       O189   2.071       .  S
Fe178       O194   2.082       .  S
Fe178       O188   1.958       .  S
Fe179       O197   2.075       .  S
Fe179       O184   2.054       .  S
Fe179       O191   2.060       .  S
Fe179       O180   2.087       .  S
Fe179       O188   1.960       .  S
O180        C187   1.273       .  A
O181        C195   1.268       .  A
O182        C187   1.265       .  A
O183        C186   1.271       .  A
O184        C196   1.271       .  A
O185        C198   1.273       .  A
C186        O191   1.269       .  A
C186       C1525   1.470       .  S
C187       C1557   1.491       .  S
O189        C192   1.271       .  A
O190        C192   1.267       .  A
C192       C1461   1.499       .  S
O193        C198   1.269       .  A
O194        C196   1.275       .  A
C195        O197   1.269       .  A
C195       C1493   1.477       .  S
C196       C1429   1.474       .  S
C198       C2334   1.473       .  S
Fe199       O215   2.056       .  S
Fe199       O205   2.054       .  S
Fe199       O212   2.058       .  S
Fe199       O204   2.050       .  S
Fe199       O210   1.969       .  S
Fe200       O203   2.059       .  S
Fe200       O207   2.071       .  S
Fe200       O211   2.070       .  S
Fe200       O216   2.069       .  S
Fe200       O210   1.977       .  S
Fe201       O219   2.074       .  S
Fe201       O206   2.083       .  S
Fe201       O213   2.084       .  S
Fe201       O202   2.079       .  S
Fe201       O210   1.980       .  S
O202        C209   1.272       .  A
O203        C217   1.266       .  A
O204        C209   1.264       .  A
O205        C208   1.267       .  A
O206        C218   1.274       .  A
O207        C220   1.270       .  A
C208        O213   1.272       .  A
C208       C1397   1.489       .  S
C209       C1438   1.498       .  S
O211        C214   1.270       .  A
O212        C214   1.265       .  A
C214       C2206   1.490       .  S
O215        C220   1.269       .  A
O216        C218   1.273       .  A
C217        O219   1.269       .  A
C217       C1365   1.479       .  S
C218       C1758   1.492       .  S
C220       C2005   1.472       .  S
Fe221       O237   2.049       .  S
Fe221       O227   2.075       .  S
Fe221       O234   2.074       .  S
Fe221       O226   2.057       .  S
Fe221       O232   1.945       .  S
Fe222       O225   2.063       .  S
Fe222       O229   2.093       .  S
Fe222       O233   2.060       .  S
Fe222       O238   2.090       .  S
Fe222       O232   1.958       .  S
Fe223       O241   2.073       .  S
Fe223       O228   2.062       .  S
Fe223       O235   2.067       .  S
Fe223       O224   2.084       .  S
Fe223       O232   1.956       .  S
O224        C231   1.272       .  A
O225        C239   1.268       .  A
O226        C231   1.269       .  A
O227        C230   1.271       .  A
O228        C240   1.272       .  A
O229        C242   1.274       .  A
C230        O235   1.270       .  A
C230       C2622   1.478       .  S
C231       C2814   1.485       .  S
O233        C236   1.269       .  A
O234        C236   1.270       .  A
C236       C1598   1.488       .  S
O237        C242   1.269       .  A
O238        C240   1.276       .  A
C239        O241   1.270       .  A
C239       C1333   1.476       .  S
C240       C1278   1.478       .  S
C242       C1310   1.486       .  S
Fe243       O259   2.052       .  S
Fe243       O249   2.063       .  S
Fe243       O256   2.061       .  S
Fe243       O248   2.054       .  S
Fe243       O254   1.965       .  S
Fe244       O247   2.049       .  S
Fe244       O251   2.073       .  S
Fe244       O255   2.068       .  S
Fe244       O260   2.076       .  S
Fe244       O254   1.973       .  S
Fe245       O263   2.086       .  S
Fe245       O250   2.070       .  S
Fe245       O257   2.072       .  S
Fe245       O246   2.091       .  S
Fe245       O254   1.980       .  S
O246        C253   1.274       .  A
O247        C261   1.264       .  A
O248        C253   1.265       .  A
O249        C252   1.269       .  A
O250        C262   1.273       .  A
O251        C264   1.269       .  A
C252        O257   1.270       .  A
C252       C1237   1.480       .  S
C253       C1269   1.501       .  S
O255        C258   1.270       .  A
O256        C258   1.267       .  A
C258       C1214   1.482       .  S
O259        C264   1.267       .  A
O260        C262   1.273       .  A
C261        O263   1.271       .  A
C261       C2366   1.485       .  S
C262       C1470   1.480       .  S
C264       C1173   1.470       .  S
Fe265       O281   2.042       .  S
Fe265       O271   2.067       .  S
Fe265       O278   2.067       .  S
Fe265       O270   2.051       .  S
Fe265       O276   1.958       .  S
Fe266       O269   2.060       .  S
Fe266       O273   2.082       .  S
Fe266       O277   2.069       .  S
Fe266       O282   2.078       .  S
Fe266       O276   1.965       .  S
Fe267       O285   2.080       .  S
Fe267       O272   2.062       .  S
Fe267       O279   2.067       .  S
Fe267       O268   2.087       .  S
Fe267       O276   1.967       .  S
O268        C275   1.275       .  A
O269        C283   1.267       .  A
O270        C275   1.266       .  A
O271        C274   1.268       .  A
O272        C284   1.271       .  A
O273        C286   1.274       .  A
C274        O279   1.268       .  A
C274       C1150   1.476       .  S
C275       C1077   1.497       .  S
O277        C280   1.267       .  A
O278        C280   1.268       .  A
C280       C2421   1.497       .  S
O281        C286   1.268       .  A
O282        C284   1.274       .  A
C283        O285   1.270       .  A
C283       C1854   1.484       .  S
C284       C1109   1.476       .  S
C286       C2782   1.468       .  S
Fe287       O303   2.056       .  S
Fe287       O293   2.064       .  S
Fe287       O300   2.063       .  S
Fe287       O292   2.066       .  S
Fe287       O298   1.956       .  S
Fe288       O291   2.077       .  S
Fe288       O295   2.081       .  S
Fe288       O299   2.076       .  S
Fe288       O304   2.079       .  S
Fe288       O298   1.963       .  S
Fe289       O307   2.071       .  S
Fe289       O294   2.069       .  S
Fe289       O301   2.068       .  S
Fe289       O290   2.079       .  S
Fe289       O298   1.963       .  S
O290        C297   1.271       .  A
O291        C305   1.270       .  A
O292        C297   1.267       .  A
O293        C296   1.270       .  A
O294        C306   1.273       .  A
O295        C308   1.272       .  A
C296        O301   1.271       .  A
C296       C1022   1.470       .  S
C297       C1045   1.494       .  S
O299        C302   1.272       .  A
O300        C302   1.268       .  A
C302       C1118   1.495       .  S
O303        C308   1.267       .  A
O304        C306   1.275       .  A
C305        O307   1.268       .  A
C305       C2078   1.483       .  S
C306        C981   1.490   1_655  S
C308       C1822   1.483       .  S
Fe309       O325   2.059       .  S
Fe309       O315   2.057       .  S
Fe309       O322   2.061       .  S
Fe309       O314   2.060       .  S
Fe309       O320   1.959       .  S
Fe310       O313   2.073       .  S
Fe310       O317   2.070       .  S
Fe310       O321   2.083       .  S
Fe310       O326   2.064       .  S
Fe310       O320   1.971       .  S
Fe311       O329   2.063       .  S
Fe311       O316   2.077       .  S
Fe311       O323   2.079       .  S
Fe311       O312   2.075       .  S
Fe311       O320   1.971       .  S
O312        C319   1.270       .  A
O313        C327   1.269       .  A
O314        C319   1.265       .  A
O315        C318   1.270       .  A
O316        C328   1.273       .  A
O317        C330   1.267       .  A
C318        O323   1.272       .  A
C318       C1301   1.473       .  S
C319       C1685   1.484       .  S
O321        C324   1.272       .  A
O322        C324   1.271       .  A
C324        C917   1.497       .  S
O325        C330   1.266       .  A
O326        C328   1.271       .  A
C327        O329   1.268       .  A
C327        C949   1.484   1_554  S
C328       C1086   1.479   1_554  S
C330       C2517   1.474       .  S
Fe331       O347   2.047       .  S
Fe331       O337   2.067       .  S
Fe331       O344   2.064       .  S
Fe331       O336   2.056       .  S
Fe331       O342   1.961       .  S
Fe332       O335   2.073       .  S
Fe332       O339   2.080       .  S
Fe332       O343   2.081       .  S
Fe332       O348   2.071       .  S
Fe332       O342   1.968       .  S
Fe333       O351   2.063       .  S
Fe333       O338   2.073       .  S
Fe333       O345   2.067       .  S
Fe333       O334   2.084       .  S
Fe333       O342   1.970       .  S
O334        C341   1.274       .  A
O335        C349   1.269       .  A
O336        C341   1.268       .  A
O337        C340   1.267       .  A
O338        C350   1.273       .  A
O339        C352   1.273       .  A
C340        O345   1.267       .  A
C340       C2293   1.476       .  S
C341       C1941   1.492       .  S
O343        C346   1.270       .  A
O344        C346   1.267       .  A
C346        C830   1.487       .  S
O347        C352   1.269       .  A
O348        C350   1.272       .  A
C349        O351   1.268       .  A
C349       C1205   1.479       .  S
C350        C853   1.480       .  S
C352        C885   1.476       .  S
Fe353       O369   2.049       .  S
Fe353       O359   2.069       .  S
Fe353       O366   2.071       .  S
Fe353       O358   2.060       .  S
Fe353       O364   1.962       .  S
Fe354       O357   2.050       .  S
Fe354       O361   2.079       .  S
Fe354       O365   2.062       .  S
Fe354       O370   2.081       .  S
Fe354       O364   1.965       .  S
Fe355       O373   2.074       .  S
Fe355       O360   2.059       .  S
Fe355       O367   2.061       .  S
Fe355       O356   2.076       .  S
Fe355       O364   1.967       .  S
O356        C363   1.270       .  A
O357        C371   1.265       .  A
O358        C363   1.271       .  A
O359        C362   1.269       .  A
O360        C372   1.270       .  A
O361        C374   1.273       .  A
C362        O367   1.267       .  A
C362       C1182   1.472       .  S
C363        C862   1.487       .  S
O365        C368   1.267       .  A
O366        C368   1.268       .  A
C368        C789   1.487       .  S
O369        C374   1.269       .  A
O370        C372   1.275       .  A
C371        O373   1.268       .  A
C371       C2558   1.483   1_455  S
C372        C926   1.474   1_455  S
C374        C757   1.468       .  S
Fe375       O391   2.068       .  S
Fe375       O381   2.050       .  S
Fe375       O388   2.055       .  S
Fe375       O380   2.063       .  S
Fe375       O386   1.954       .  S
Fe376       O379   2.077       .  S
Fe376       O383   2.074       .  S
Fe376       O387   2.088       .  S
Fe376       O392   2.077       .  S
Fe376       O386   1.964       .  S
Fe377       O395   2.068       .  S
Fe377       O382   2.078       .  S
Fe377       O389   2.081       .  S
Fe377       O378   2.078       .  S
Fe377       O386   1.963       .  S
O378        C385   1.272       .  A
O379        C393   1.270       .  A
O380        C385   1.268       .  A
O381        C384   1.268       .  A
O382        C394   1.275       .  A
O383        C396   1.271       .  A
C384        O389   1.272       .  A
C384       C2046   1.480       .  S
C385        C990   1.491       .  S
O387        C390   1.274       .  A
O388        C390   1.266       .  A
C390       C1502   1.498       .  S
O391        C396   1.270       .  A
O392        C394   1.274       .  A
C393        O395   1.269       .  A
C393        C725   1.482       .  S
C394        C821   1.494   1_556  S
C396       C1406   1.477       .  S
Fe397       O413   2.041       .  S
Fe397       O403   2.061       .  S
Fe397       O410   2.066       .  S
Fe397       O402   2.053       .  S
Fe397       O408   1.959       .  S
Fe398       O401   2.060       .  S
Fe398       O405   2.096       .  S
Fe398       O409   2.074       .  S
Fe398       O414   2.100       .  S
Fe398       O408   1.963       .  S
Fe399       O417   2.083       .  S
Fe399       O404   2.061       .  S
Fe399       O411   2.069       .  S
Fe399       O400   2.083       .  S
Fe399       O408   1.965       .  S
O400        C407   1.273       .  A
O401        C415   1.267       .  A
O402        C407   1.269       .  A
O403        C406   1.267       .  A
O404        C416   1.270       .  A
O405        C418   1.275       .  A
C406        O411   1.269       .  A
C406       C2718   1.478       .  S
C407        C661   1.475       .  S
O409        C412   1.270       .  A
O410        C412   1.268       .  A
C412        C958   1.485       .  S
O413        C418   1.267       .  A
O414        C416   1.278       .  A
C415        O417   1.271       .  A
C415       C1566   1.486       .  S
C416        C693   1.489       .  S
C418       C1141   1.472       .  S
Fe419       O435   2.053       .  S
Fe419       O425   2.068       .  S
Fe419       O432   2.070       .  S
Fe419       O424   2.062       .  S
Fe419       O430   1.968       .  S
Fe420       O423   2.069       .  S
Fe420       O427   2.069       .  S
Fe420       O431   2.071       .  S
Fe420       O436   2.072       .  S
Fe420       O430   1.978       .  S
Fe421       O439   2.062       .  S
Fe421       O426   2.071       .  S
Fe421       O433   2.070       .  S
Fe421       O422   2.069       .  S
Fe421       O430   1.975       .  S
O422        C429   1.266       .  A
O423        C437   1.267       .  A
O424        C429   1.268       .  A
O425        C428   1.272       .  A
O426        C438   1.274       .  A
O427        C440   1.271       .  A
C428        O433   1.271       .  A
C428       C2453   1.492       .  S
C429       C2110   1.497       .  S
O431        C434   1.269       .  A
O432        C434   1.269       .  A
C434        C702   1.482       .  S
O435        C440   1.267       .  A
O436        C438   1.273       .  A
C437        O439   1.265       .  A
C437        C798   1.479       .  S
C438        C629   1.484   1_556  S
C440       C1534   1.479       .  S
Fe441       O457   2.057       .  S
Fe441       O447   2.070       .  S
Fe441       O454   2.066       .  S
Fe441       O446   2.061       .  S
Fe441       O452   1.957       .  S
Fe442       O445   2.069       .  S
Fe442       O449   2.071       .  S
Fe442       O453   2.068       .  S
Fe442       O458   2.071       .  S
Fe442       O452   1.963       .  S
Fe443       O461   2.070       .  S
Fe443       O448   2.067       .  S
Fe443       O455   2.065       .  S
Fe443       O444   2.077       .  S
Fe443       O452   1.962       .  S
O444        C451   1.268       .  A
O445        C459   1.268       .  A
O446        C451   1.267       .  A
O447        C450   1.272       .  A
O448        C460   1.273       .  A
O449        C462   1.268       .  A
C450        O455   1.271       .  A
C450       C1781   1.469       .  S
C451       C1374   1.495       .  S
O453        C456   1.271       .  A
O454        C456   1.269       .  A
C456        C606   1.491       .  S
O457        C462   1.269       .  A
O458        C460   1.272       .  A
C459        O461   1.268       .  A
C459       C2750   1.480       .  S
C460        C670   1.479       .  S
C462       C1013   1.489       .  S
Fe463       O479   2.061       .  S
Fe463       O469   2.073       .  S
Fe463       O476   2.076       .  S
Fe463       O468   2.072       .  S
Fe463       O474   1.960       .  S
Fe464       O467   2.067       .  S
Fe464       O471   2.077       .  S
Fe464       O475   2.065       .  S
Fe464       O480   2.082       .  S
Fe464       O474   1.965       .  S
Fe465       O483   2.060       .  S
Fe465       O470   2.068       .  S
Fe465       O477   2.061       .  S
Fe465       O466   2.067       .  S
Fe465       O474   1.966       .  S
O466        C473   1.266       .  A
O467        C481   1.265       .  A
O468        C473   1.269       .  A
O469        C472   1.273       .  A
O470        C482   1.275       .  A
O471        C484   1.271       .  A
C472        O477   1.271       .  A
C472        C894   1.470       .  S
C473        C734   1.490       .  S
O475        C478   1.268       .  A
O476        C478   1.272       .  A
C478        C533   1.483       .  S
O479        C484   1.269       .  A
O480        C482   1.276       .  A
C481        O483   1.264       .  A
C481       C1653   1.475       .  S
C482        C565   1.480       .  S
C484       C2142   1.482       .  S
Fe485       O501   2.046       .  S
Fe485       O491   2.061       .  S
Fe485       O498   2.060       .  S
Fe485       O490   2.054       .  S
Fe485       O496   1.963       .  S
Fe486       O489   2.058       .  S
Fe486       O493   2.081       .  S
Fe486       O497   2.074       .  S
Fe486       O502   2.078       .  S
Fe486       O496   1.974       .  S
Fe487       O505   2.079       .  S
Fe487       O492   2.067       .  S
Fe487       O499   2.076       .  S
Fe487       O488   2.080       .  S
Fe487       O496   1.974       .  S
O488        C495   1.270       .  A
O489        C503   1.266       .  A
O490        C495   1.267       .  A
O491        C494   1.268       .  A
O492        C504   1.273       .  A
O493        C506   1.272       .  A
C494        O499   1.271       .  A
C494       C1630   1.476       .  S
C495        C574   1.485       .  S
O497        C500   1.269       .  A
O498        C500   1.265       .  A
C500       C2590   1.490       .  S
O501        C506   1.268       .  A
O502        C504   1.274       .  A
C503        O505   1.269       .  A
C503       C1054   1.483   1_554  S
C504        C597   1.475   1_554  S
C506       C1982   1.474       .  S
Fe507       O523   2.060       .  S
Fe507       O513   2.045       .  S
Fe507       O520   2.052       .  S
Fe507       O512   2.049       .  S
Fe507       O518   1.956       .  S
Fe508       O511   2.066       .  S
Fe508       O515   2.071       .  S
Fe508       O519   2.079       .  S
Fe508       O524   2.074       .  S
Fe508       O518   1.966       .  S
Fe509       O527   2.076       .  S
Fe509       O514   2.078       .  S
Fe509       O521   2.080       .  S
Fe509       O510   2.087       .  S
Fe509       O518   1.970       .  S
O510        C517   1.273       .  A
O511        C525   1.269       .  A
O512        C517   1.268       .  A
O513        C516   1.265       .  A
O514        C526   1.273       .  A
O515        C528   1.270       .  A
C516        O521   1.271       .  A
C516        C766   1.483       .  S
C517        C638   1.498       .  S
O519        C522   1.272       .  A
O520        C522   1.264       .  A
C522       C1342   1.494       .  S
O523        C528   1.268       .  A
O524        C526   1.273       .  A
C525        O527   1.271       .  A
C525       C2165   1.483       .  S
C526        C542   1.482   1_565  S
C528       C1246   1.473       .  S
C529        C530   1.400       .  A
C529        C534   1.405       .  A
C529        H539   1.085       .  S
C530        C535   1.485       .  S
C530        C531   1.410       .  A
C531        C532   1.405       .  A
C531        C536   1.506       .  S
C532        C533   1.405       .  A
C532        H537   1.084       .  S
C533        C534   1.423       .  A
C534        C538   1.511       .  S
C535        C540   1.411       .  A
C535        C544   1.399       .  A
C536        H552   1.110       .  S
C536        H553   1.110       .  S
C536        H554   1.111       .  S
C538        H549   1.110       .  S
C538        H550   1.111       .  S
C538        H551   1.103       .  S
C540        C541   1.410       .  A
C540        C545   1.504       .  S
C541        C542   1.407       .  A
C541        H546   1.084   1_545  S
C542        C543   1.420       .  A
C543        C544   1.400       .  A
C543        C547   1.510       .  S
C544        H548   1.085       .  S
C545        H555   1.111       .  S
C545        H556   1.110       .  S
C545        H557   1.110       .  S
C547        H558   1.111       .  S
C547        H559   1.104       .  S
C547        H560   1.110       .  S
C561        C562   1.400       .  A
C561        C566   1.403       .  A
C561        H571   1.085       .  S
C562        C567   1.483       .  S
C562        C563   1.412       .  A
C563        C564   1.405       .  A
C563        C568   1.507       .  S
C564        C565   1.404       .  A
C564        H569   1.084       .  S
C565        C566   1.418       .  A
C566        C570   1.508       .  S
C567        C572   1.410       .  A
C567        C576   1.402       .  A
C568        H584   1.110       .  S
C568        H585   1.111       .  S
C568        H586   1.111       .  S
C570        H581   1.110       .  S
C570        H582   1.111       .  S
C570        H583   1.107       .  S
C572        C573   1.400       .  A
C572        C577   1.508       .  S
C573        C574   1.406       .  A
C573        H578   1.084       .  S
C574        C575   1.418       .  A
C575        C576   1.408       .  A
C575        C579   1.506       .  S
C576        H580   1.084       .  S
C577        H587   1.111       .  S
C577        H588   1.110       .  S
C577        H589   1.111       .  S
C579        H590   1.111       .  S
C579        H591   1.109       .  S
C579        H592   1.109       .  S
C593        C594   1.402       .  A
C593        C598   1.406       .  A
C593        H603   1.084       .  S
C594        C599   1.480       .  S
C594        C595   1.412       .  A
C595        C596   1.401       .  A
C595        C600   1.509       .  S
C596        C597   1.403       .  A
C596        H601   1.085       .  S
C597        C598   1.416       .  A
C598        C602   1.506   1_556  S
C599        C604   1.408       .  A
C599        C608   1.399       .  A
C600        H616   1.110       .  S
C600        H617   1.109       .  S
C600        H618   1.111       .  S
C602        H613   1.110       .  S
C602        H614   1.110   1_554  S
C602        H615   1.108       .  S
C604        C605   1.404       .  A
C604        C609   1.507       .  S
C605        C606   1.409       .  A
C605        H610   1.084       .  S
C606        C607   1.422       .  A
C607        C608   1.404       .  A
C607        C611   1.509       .  S
C608        H612   1.084       .  S
C609        H619   1.111       .  S
C609        H620   1.110       .  S
C609        H621   1.109       .  S
C611        H622   1.111       .  S
C611        H623   1.111       .  S
C611        H624   1.109       .  S
C625        C626   1.401       .  A
C625        C630   1.405       .  A
C625        H635   1.085       .  S
C626        C631   1.483       .  S
C626        C627   1.410       .  A
C627        C628   1.403       .  A
C627        C632   1.507       .  S
C628        C629   1.406       .  A
C628        H633   1.084       .  S
C629        C630   1.420       .  A
C630        C634   1.508   1_554  S
C631        C636   1.407       .  A
C631        C640   1.403       .  A
C632        H648   1.110       .  S
C632        H649   1.110       .  S
C632        H650   1.111       .  S
C634        H645   1.110   1_556  S
C634        H646   1.111       .  S
C634        H647   1.107       .  S
C636        C637   1.397       .  A
C636        C641   1.509       .  S
C637        C638   1.412       .  A
C637        H642   1.083       .  S
C638        C639   1.421       .  A
C639        C640   1.411       .  A
C639        C643   1.506       .  S
C640        H644   1.084       .  S
C641        H651   1.111       .  S
C641        H652   1.110       .  S
C641        H653   1.110       .  S
C643        H654   1.111       .  S
C643        H655   1.110       .  S
C643        H656   1.110       .  S
C657        C658   1.402       .  A
C657        C662   1.406       .  A
C657        H667   1.084       .  S
C658        C663   1.480       .  S
C658        C659   1.411       .  A
C659        C660   1.400       .  A
C659        C664   1.508       .  S
C660        C661   1.403       .  A
C660        H665   1.085       .  S
C661        C662   1.416       .  A
C662        C666   1.507       .  S
C663        C668   1.411       .  A
C663        C672   1.399       .  A
C664        H680   1.110       .  S
C664        H681   1.111       .  S
C664        H682   1.111       .  S
C666        H677   1.110       .  S
C666        H678   1.111       .  S
C666        H679   1.108       .  S
C668        C669   1.404       .  A
C668        C673   1.506       .  S
C669        C670   1.405   1_565  A
C669        H674   1.084       .  S
C670        C671   1.419   1_545  A
C671        C672   1.401       .  A
C671        C675   1.508   1_565  S
C672        H676   1.085       .  S
C673        H683   1.111       .  S
C673        H684   1.110       .  S
C673        H685   1.110       .  S
C675        H686   1.111       .  S
C675        H687   1.107       .  S
C675        H688   1.110   1_545  S
C689        C690   1.399       .  A
C689        C694   1.401       .  A
C689        H699   1.085       .  S
C690        C695   1.492       .  S
C690        C691   1.414       .  A
C691        C692   1.411       .  A
C691        C696   1.506       .  S
C692        C693   1.407       .  A
C692        H697   1.084       .  S
C693        C694   1.423       .  A
C694        C698   1.509       .  S
C695        C700   1.416       .  A
C695        C704   1.402       .  A
C696        H712   1.108       .  S
C696        H713   1.110       .  S
C696        H714   1.111       .  S
C698        H709   1.110       .  S
C698        H710   1.111       .  S
C698        H711   1.102       .  S
C700        C701   1.409       .  A
C700        C705   1.507       .  S
C701        C702   1.404       .  A
C701        H706   1.084       .  S
C702        C703   1.419       .  A
C703        C704   1.403       .  A
C703        C707   1.509       .  S
C704        H708   1.084       .  S
C705        H715   1.111       .  S
C705        H716   1.108       .  S
C705        H717   1.110       .  S
C707        H718   1.111       .  S
C707        H719   1.104       .  S
C707        H720   1.110       .  S
C721        C722   1.403       .  A
C721        C726   1.408   1_554  A
C721        H731   1.084       .  S
C722        C727   1.486       .  S
C722        C723   1.412       .  A
C723        C724   1.404       .  A
C723        C728   1.507       .  S
C724        C725   1.405   1_554  A
C724        H729   1.084       .  S
C725        C726   1.418       .  A
C726        C730   1.508       .  S
C727        C732   1.410       .  A
C727        C736   1.400       .  A
C728        H744   1.110       .  S
C728        H745   1.110       .  S
C728        H746   1.111       .  S
C730        H741   1.110       .  S
C730        H742   1.111       .  S
C730        H743   1.107       .  S
C732        C733   1.407       .  A
C732        C737   1.506       .  S
C733        C734   1.408       .  A
C733        H738   1.084       .  S
C734        C735   1.420       .  A
C735        C736   1.406       .  A
C735        C739   1.508       .  S
C736        H740   1.084       .  S
C737        H747   1.111       .  S
C737        H748   1.110       .  S
C737        H749   1.110       .  S
C739        H750   1.111       .  S
C739        H751   1.108       .  S
C739        H752   1.110       .  S
C753        C754   1.401       .  A
C753        C758   1.405       .  A
C753        H763   1.084       .  S
C754        C759   1.476       .  S
C754        C755   1.412       .  A
C755        C756   1.398       .  A
C755        C760   1.508       .  S
C756        C757   1.401       .  A
C756        H761   1.085       .  S
C757        C758   1.416       .  A
C758        C762   1.508       .  S
C759        C764   1.407       .  A
C759        C768   1.399       .  A
C760        H776   1.110       .  S
C760        H777   1.110       .  S
C760        H778   1.111       .  S
C762        H773   1.110       .  S
C762        H774   1.110       .  S
C762        H775   1.107       .  S
C764        C765   1.404       .  A
C764        C769   1.506       .  S
C765        C766   1.408       .  A
C765        H770   1.084       .  S
C766        C767   1.420       .  A
C767        C768   1.401       .  A
C767        C771   1.510       .  S
C768        H772   1.085       .  S
C769        H779   1.111       .  S
C769        H780   1.110       .  S
C769        H781   1.110       .  S
C771        H782   1.111       .  S
C771        H783   1.110       .  S
C771        H784   1.109       .  S
C785        C786   1.401       .  A
C785        C790   1.403       .  A
C785        H795   1.084       .  S
C786        C791   1.489       .  S
C786        C787   1.413       .  A
C787        C788   1.408       .  A
C787        C792   1.506       .  S
C788        C789   1.406       .  A
C788        H793   1.084       .  S
C789        C790   1.419       .  A
C790        C794   1.509       .  S
C791        C796   1.413       .  A
C791        C800   1.403       .  A
C792        H808   1.109       .  S
C792        H809   1.110       .  S
C792        H810   1.111       .  S
C794        H805   1.111       .  S
C794        H806   1.110       .  S
C794        H807   1.110       .  S
C796        C797   1.406   1_554  A
C796        C801   1.507   1_554  S
C797        C798   1.405       .  A
C797        H802   1.084       .  S
C798        C799   1.417   1_556  A
C799        C800   1.404       .  A
C799        C803   1.509       .  S
C800        H804   1.085       .  S
C801        H811   1.111       .  S
C801        H812   1.109       .  S
C801        H813   1.110       .  S
C803        H814   1.111       .  S
C803        H815   1.106       .  S
C803        H816   1.110       .  S
C817        C818   1.402       .  A
C817        C822   1.409       .  A
C817        H827   1.084       .  S
C818        C823   1.488       .  S
C818        C819   1.409       .  A
C819        C820   1.404       .  A
C819        C824   1.507       .  S
C820        C821   1.408       .  A
C820        H825   1.084       .  S
C821        C822   1.421       .  A
C822        C826   1.507       .  S
C823        C828   1.411       .  A
C823        C832   1.404       .  A
C824        H840   1.110       .  S
C824        H841   1.110       .  S
C824        H842   1.111       .  S
C826        H837   1.111       .  S
C826        H838   1.110   1_554  S
C826        H839   1.111   1_554  S
C828        C829   1.402       .  A
C828        C833   1.508       .  S
C829        C830   1.405       .  A
C829        H834   1.085       .  S
C830        C831   1.417       .  A
C831        C832   1.410       .  A
C831        C835   1.502       .  S
C832        H836   1.084       .  S
C833        H843   1.111       .  S
C833        H844   1.110       .  S
C833        H845   1.110       .  S
C835        H846   1.110       .  S
C835        H847   1.104       .  S
C835        H848   1.111       .  S
C849        C850   1.399       .  A
C849        C854   1.402       .  A
C849        H859   1.084       .  S
C850        C855   1.480       .  S
C850        C851   1.412       .  A
C851        C852   1.406       .  A
C851        C856   1.506       .  S
C852        C853   1.405       .  A
C852        H857   1.084       .  S
C853        C854   1.414       .  A
C854        C858   1.503       .  S
C855        C860   1.410       .  A
C855        C864   1.400       .  A
C856        H872   1.110       .  S
C856        H873   1.110       .  S
C856        H874   1.111       .  S
C858        H869   1.109       .  S
C858        H870   1.111       .  S
C858        H871   1.110       .  S
C860        C861   1.400       .  A
C860        C865   1.508       .  S
C861        C862   1.406       .  A
C861        H866   1.084       .  S
C862        C863   1.421       .  A
C863        C864   1.407       .  A
C863        C867   1.508       .  S
C864        H868   1.084       .  S
C865        H875   1.111       .  S
C865        H876   1.110       .  S
C865        H877   1.110       .  S
C867        H878   1.111       .  S
C867        H879   1.111       .  S
C867        H880   1.109       .  S
C881        C882   1.401       .  A
C881        C886   1.400       .  A
C881        H891   1.085       .  S
C882        C887   1.479       .  S
C882        C883   1.411       .  A
C883        C884   1.403       .  A
C883        C888   1.507       .  S
C884        C885   1.405       .  A
C884        H889   1.084       .  S
C885        C886   1.416       .  A
C886        C890   1.509       .  S
C887        C892   1.412       .  A
C887        C896   1.402       .  A
C888        H904   1.109       .  S
C888        H905   1.110       .  S
C888        H906   1.111       .  S
C890        H901   1.111       .  S
C890        H902   1.110       .  S
C890        H903   1.108       .  S
C892        C893   1.404       .  A
C892        C897   1.506       .  S
C893        C894   1.403       .  A
C893        H898   1.084       .  S
C894        C895   1.413       .  A
C895        C896   1.400       .  A
C895        C899   1.510       .  S
C896        H900   1.084       .  S
C897        H907   1.111       .  S
C897        H908   1.109       .  S
C897        H909   1.110       .  S
C899        H910   1.111       .  S
C899        H911   1.109       .  S
C899        H912   1.111       .  S
C913        C914   1.399       .  A
C913        C918   1.407       .  A
C913        H923   1.084       .  S
C914        C919   1.481       .  S
C914        C915   1.408       .  A
C915        C916   1.402       .  A
C915        C920   1.507       .  S
C916        C917   1.410       .  A
C916        H921   1.083       .  S
C917        C918   1.424       .  A
C918        C922   1.508       .  S
C919        C924   1.410       .  A
C919        C928   1.401       .  A
C920        H936   1.110       .  S
C920        H937   1.110       .  S
C920        H938   1.111       .  S
C922        H933   1.111       .  S
C922        H934   1.109       .  S
C922        H935   1.111       .  S
C924        C925   1.406       .  A
C924        C929   1.505       .  S
C925        C926   1.405       .  A
C925        H930   1.084       .  S
C926        C927   1.417       .  A
C927        C928   1.401       .  A
C927        C931   1.510       .  S
C928        H932   1.085       .  S
C929        H939   1.111       .  S
C929        H940   1.110       .  S
C929        H941   1.110       .  S
C931        H942   1.110       .  S
C931        H943   1.106       .  S
C931        H944   1.111       .  S
C945        C946   1.401       .  A
C945        C950   1.404       .  A
C945        H955   1.085       .  S
C946        C951   1.485       .  S
C946        C947   1.409       .  A
C947        C948   1.406   1_556  A
C947        C952   1.506   1_556  S
C948        C949   1.407   1_554  A
C948        H953   1.084       .  S
C949        C950   1.421       .  A
C950        C954   1.510       .  S
C951        C956   1.410       .  A
C951        C960   1.399       .  A
C952        H968   1.110   1_554  S
C952        H969   1.110   1_554  S
C952        H970   1.111       .  S
C954        H965   1.110       .  S
C954        H966   1.111       .  S
C954        H967   1.103       .  S
C956        C957   1.407       .  A
C956        C961   1.506       .  S
C957        C958   1.409       .  A
C957        H962   1.084       .  S
C958        C959   1.422       .  A
C959        C960   1.403       .  A
C959        C963   1.510       .  S
C960        H964   1.085       .  S
C961        H971   1.111       .  S
C961        H972   1.110       .  S
C961        H973   1.110       .  S
C963        H974   1.111       .  S
C963        H975   1.102       .  S
C963        H976   1.110       .  S
C977        C978   1.401       .  A
C977        C982   1.407       .  A
C977        H987   1.084       .  S
C978        C983   1.483       .  S
C978        C979   1.409       .  A
C979        C980   1.404       .  A
C979        C984   1.507       .  S
C980        C981   1.408       .  A
C980        H985   1.084       .  S
C981        C982   1.420       .  A
C982        C986   1.508       .  S
C983        C988   1.410       .  A
C983        C992   1.397       .  A
C984       H1000   1.110       .  S
C984       H1001   1.110       .  S
C984       H1002   1.111       .  S
C986        H997   1.111       .  S
C986        H998   1.111   1_455  S
C986        H999   1.110   1_455  S
C988        C989   1.410       .  A
C988        C993   1.505       .  S
C989        C990   1.409       .  A
C989        H994   1.084       .  S
C990        C991   1.423       .  A
C991        C992   1.401       .  A
C991        C995   1.511       .  S
C992        H996   1.085       .  S
C993       H1003   1.111       .  S
C993       H1004   1.110       .  S
C993       H1005   1.110       .  S
C995       H1006   1.111       .  S
C995       H1007   1.109       .  S
C995       H1008   1.111       .  S
C1009      C1010   1.400       .  A
C1009      C1014   1.406       .  A
C1009      H1019   1.084       .  S
C1010      C1015   1.480       .  S
C1010      C1011   1.409       .  A
C1011      C1012   1.401       .  A
C1011      C1016   1.508       .  S
C1012      C1013   1.407       .  A
C1012      H1017   1.084       .  S
C1013      C1014   1.422       .  A
C1014      C1018   1.508       .  S
C1015      C1020   1.411       .  A
C1015      C1024   1.403       .  A
C1016      H1032   1.110       .  S
C1016      H1033   1.110       .  S
C1016      H1034   1.111       .  S
C1018      H1029   1.111       .  S
C1018      H1030   1.110       .  S
C1018      H1031   1.111       .  S
C1020      C1021   1.398       .  A
C1020      C1025   1.508       .  S
C1021      C1022   1.402       .  A
C1021      H1026   1.084       .  S
C1022      C1023   1.416       .  A
C1023      C1024   1.406       .  A
C1023      C1027   1.508       .  S
C1024      H1028   1.084       .  S
C1025      H1035   1.111       .  S
C1025      H1036   1.110       .  S
C1025      H1037   1.110       .  S
C1027      H1038   1.110       .  S
C1027      H1039   1.107       .  S
C1027      H1040   1.111       .  S
C1041      C1042   1.402       .  A
C1041      C1046   1.411       .  A
C1041      H1051   1.084       .  S
C1042      C1047   1.486       .  S
C1042      C1043   1.410       .  A
C1043      C1044   1.401       .  A
C1043      C1048   1.508       .  S
C1044      C1045   1.408       .  A
C1044      H1049   1.084       .  S
C1045      C1046   1.420       .  A
C1046      C1050   1.506       .  S
C1047      C1052   1.410       .  A
C1047      C1056   1.401       .  A
C1048      H1064   1.110       .  S
C1048      H1065   1.110       .  S
C1048      H1066   1.111       .  S
C1050      H1061   1.111       .  S
C1050      H1062   1.109       .  S
C1050      H1063   1.110       .  S
C1052      C1053   1.407   1_556  A
C1052      C1057   1.505       .  S
C1053      C1054   1.407   1_554  A
C1053      H1058   1.084       .  S
C1054      C1055   1.420       .  A
C1055      C1056   1.404       .  A
C1055      C1059   1.510       .  S
C1056      H1060   1.085       .  S
C1057      H1067   1.111   1_556  S
C1057      H1068   1.110       .  S
C1057      H1069   1.110       .  S
C1059      H1070   1.110       .  S
C1059      H1071   1.104       .  S
C1059      H1072   1.111       .  S
C1073      C1074   1.399       .  A
C1073      C1078   1.404       .  A
C1073      H1083   1.084       .  S
C1074      C1079   1.484       .  S
C1074      C1075   1.409       .  A
C1075      C1076   1.404       .  A
C1075      C1080   1.507       .  S
C1076      C1077   1.411       .  A
C1076      H1081   1.083       .  S
C1077      C1078   1.425       .  A
C1078      C1082   1.510       .  S
C1079      C1084   1.412       .  A
C1079      C1088   1.401       .  A
C1080      H1096   1.109       .  S
C1080      H1097   1.110       .  S
C1080      H1098   1.111       .  S
C1082      H1093   1.111       .  S
C1082      H1094   1.111       .  S
C1082      H1095   1.110       .  S
C1084      C1085   1.406       .  A
C1084      C1089   1.506       .  S
C1085      C1086   1.405       .  A
C1085      H1090   1.084       .  S
C1086      C1087   1.416       .  A
C1087      C1088   1.402       .  A
C1087      C1091   1.508       .  S
C1088      H1092   1.084       .  S
C1089      H1099   1.111       .  S
C1089      H1100   1.109       .  S
C1089      H1101   1.110       .  S
C1091      H1102   1.111       .  S
C1091      H1103   1.109       .  S
C1091      H1104   1.110       .  S
C1105      C1106   1.402       .  A
C1105      C1110   1.405       .  A
C1105      H1115   1.084       .  S
C1106      C1111   1.481       .  S
C1106      C1107   1.413       .  A
C1107      C1108   1.402       .  A
C1107      C1112   1.509       .  S
C1108      C1109   1.403       .  A
C1108      H1113   1.084       .  S
C1109      C1110   1.417       .  A
C1110      C1114   1.508       .  S
C1111      C1116   1.409       .  A
C1111      C1120   1.397       .  A
C1112      H1128   1.110       .  S
C1112      H1129   1.108       .  S
C1112      H1130   1.111       .  S
C1114      H1125   1.110       .  S
C1114      H1126   1.110       .  S
C1114      H1127   1.108       .  S
C1116      C1117   1.406       .  A
C1116      C1121   1.507       .  S
C1117      C1118   1.410       .  A
C1117      H1122   1.083       .  S
C1118      C1119   1.424       .  A
C1119      C1120   1.403       .  A
C1119      C1123   1.509       .  S
C1120      H1124   1.084       .  S
C1121      H1131   1.111       .  S
C1121      H1132   1.110       .  S
C1121      H1133   1.108       .  S
C1123      H1134   1.111       .  S
C1123      H1135   1.109       .  S
C1123      H1136   1.109       .  S
C1137      C1138   1.399       .  A
C1137      C1142   1.397       .  A
C1137      H1147   1.085       .  S
C1138      C1143   1.480       .  S
C1138      C1139   1.411       .  A
C1139      C1140   1.409       .  A
C1139      C1144   1.504       .  S
C1140      C1141   1.405       .  A
C1140      H1145   1.084       .  S
C1141      C1142   1.415       .  A
C1142      C1146   1.509       .  S
C1143      C1148   1.410       .  A
C1143      C1152   1.402       .  A
C1144      H1160   1.110       .  S
C1144      H1161   1.110       .  S
C1144      H1162   1.111       .  S
C1146      H1157   1.111       .  S
C1146      H1158   1.111       .  S
C1146      H1159   1.107       .  S
C1148      C1149   1.402       .  A
C1148      C1153   1.507       .  S
C1149      C1150   1.404       .  A
C1149      H1154   1.085       .  S
C1150      C1151   1.417       .  A
C1151      C1152   1.405       .  A
C1151      C1155   1.508       .  S
C1152      H1156   1.084       .  S
C1153      H1163   1.111       .  S
C1153      H1164   1.110       .  S
C1153      H1165   1.110       .  S
C1155      H1166   1.111       .  S
C1155      H1167   1.106       .  S
C1155      H1168   1.110       .  S
C1169      C1170   1.400       .  A
C1169      C1174   1.398       .  A
C1169      H1179   1.085       .  S
C1170      C1175   1.479       .  S
C1170      C1171   1.411       .  A
C1171      C1172   1.407       .  A
C1171      C1176   1.505       .  S
C1172      C1173   1.404       .  A
C1172      H1177   1.084       .  S
C1173      C1174   1.414       .  A
C1174      C1178   1.510       .  S
C1175      C1180   1.411       .  A
C1175      C1184   1.401       .  A
C1176      H1192   1.110       .  S
C1176      H1193   1.109       .  S
C1176      H1194   1.111       .  S
C1178      H1189   1.110       .  S
C1178      H1190   1.111       .  S
C1178      H1191   1.108       .  S
C1180      C1181   1.402       .  A
C1180      C1185   1.508       .  S
C1181      C1182   1.403       .  A
C1181      H1186   1.085       .  S
C1182      C1183   1.417       .  A
C1183      C1184   1.404       .  A
C1183      C1187   1.508       .  S
C1184      H1188   1.085       .  S
C1185      H1195   1.111       .  S
C1185      H1196   1.110       .  S
C1185      H1197   1.109       .  S
C1187      H1198   1.111       .  S
C1187      H1199   1.106       .  S
C1187      H1200   1.110       .  S
C1201      C1202   1.402       .  A
C1201      C1206   1.404       .  A
C1201      H1211   1.084       .  S
C1202      C1207   1.486       .  S
C1202      C1203   1.414       .  A
C1203      C1204   1.405       .  A
C1203      C1208   1.507       .  S
C1204      C1205   1.403       .  A
C1204      H1209   1.084       .  S
C1205      C1206   1.417       .  A
C1206      C1210   1.508       .  S
C1207      C1212   1.412       .  A
C1207      C1216   1.403       .  A
C1208      H1224   1.109       .  S
C1208      H1225   1.111       .  S
C1208      H1226   1.111       .  S
C1210      H1221   1.110       .  S
C1210      H1222   1.111       .  S
C1210      H1223   1.107       .  S
C1212      C1213   1.402       .  A
C1212      C1217   1.508       .  S
C1213      C1214   1.405       .  A
C1213      H1218   1.084       .  S
C1214      C1215   1.416       .  A
C1215      C1216   1.408       .  A
C1215      C1219   1.507       .  S
C1216      H1220   1.084       .  S
C1217      H1227   1.111       .  S
C1217      H1228   1.109       .  S
C1217      H1229   1.110       .  S
C1219      H1230   1.111       .  S
C1219      H1231   1.110       .  S
C1219      H1232   1.109       .  S
C1233      C1234   1.400       .  A
C1233      C1238   1.400       .  A
C1233      H1243   1.085       .  S
C1234      C1239   1.480       .  S
C1234      C1235   1.410       .  A
C1235      C1236   1.407       .  A
C1235      C1240   1.506       .  S
C1236      C1237   1.406       .  A
C1236      H1241   1.084       .  S
C1237      C1238   1.417       .  A
C1238      C1242   1.509       .  S
C1239      C1244   1.411       .  A
C1239      C1248   1.402       .  A
C1240      H1256   1.110       .  S
C1240      H1257   1.109       .  S
C1240      H1258   1.111       .  S
C1242      H1253   1.110       .  S
C1242      H1254   1.111       .  S
C1242      H1255   1.107       .  S
C1244      C1245   1.401       .  A
C1244      C1249   1.508       .  S
C1245      C1246   1.403       .  A
C1245      H1250   1.085       .  S
C1246      C1247   1.416       .  A
C1247      C1248   1.406       .  A
C1247      C1251   1.509       .  S
C1248      H1252   1.084       .  S
C1249      H1259   1.111       .  S
C1249      H1260   1.110       .  S
C1249      H1261   1.109       .  S
C1251      H1262   1.111       .  S
C1251      H1263   1.107       .  S
C1251      H1264   1.110       .  S
C1265      C1266   1.398       .  A
C1265      C1270   1.404       .  A
C1265      H1275   1.084       .  S
C1266      C1271   1.487       .  S
C1266      C1267   1.410       .  A
C1267      C1268   1.408       .  A
C1267      C1272   1.506       .  S
C1268      C1269   1.411       .  A
C1268      H1273   1.083       .  S
C1269      C1270   1.427       .  A
C1270      C1274   1.510       .  S
C1271      C1276   1.413       .  A
C1271      C1280   1.401       .  A
C1272      H1288   1.109       .  S
C1272      H1289   1.110       .  S
C1272      H1290   1.111       .  S
C1274      H1285   1.111       .  S
C1274      H1286   1.110       .  S
C1274      H1287   1.110       .  S
C1276      C1277   1.408       .  A
C1276      C1281   1.506       .  S
C1277      C1278   1.405       .  A
C1277      H1282   1.084       .  S
C1278      C1279   1.417       .  A
C1279      C1280   1.401       .  A
C1279      C1283   1.509       .  S
C1280      H1284   1.085       .  S
C1281      H1291   1.111       .  S
C1281      H1292   1.109       .  S
C1281      H1293   1.110       .  S
C1283      H1294   1.111       .  S
C1283      H1295   1.105       .  S
C1283      H1296   1.110       .  S
C1297      C1298   1.401       .  A
C1297      C1302   1.402       .  A
C1297      H1307   1.084       .  S
C1298      C1303   1.479       .  S
C1298      C1299   1.412       .  A
C1299      C1300   1.404       .  A
C1299      C1304   1.506       .  S
C1300      C1301   1.403       .  A
C1300      H1305   1.084       .  S
C1301      C1302   1.413       .  A
C1302      C1306   1.506       .  S
C1303      C1308   1.408       .  A
C1303      C1312   1.402       .  A
C1304      H1320   1.110       .  S
C1304      H1321   1.110       .  S
C1304      H1322   1.111       .  S
C1306      H1317   1.109       .  S
C1306      H1318   1.111       .  S
C1306      H1319   1.111       .  S
C1308      C1309   1.397       .  A
C1308      C1313   1.509       .  S
C1309      C1310   1.407       .  A
C1309      H1314   1.084       .  S
C1310      C1311   1.420       .  A
C1311      C1312   1.409       .  A
C1311      C1315   1.507       .  S
C1312      H1316   1.084       .  S
C1313      H1323   1.111       .  S
C1313      H1324   1.110       .  S
C1313      H1325   1.110       .  S
C1315      H1326   1.111       .  S
C1315      H1327   1.106       .  S
C1315      H1328   1.110       .  S
C1329      C1330   1.401       .  A
C1329      C1334   1.406       .  A
C1329      H1339   1.084       .  S
C1330      C1335   1.480       .  S
C1330      C1331   1.411       .  A
C1331      C1332   1.400       .  A
C1331      C1336   1.509       .  S
C1332      C1333   1.404       .  A
C1332      H1337   1.084       .  S
C1333      C1334   1.417       .  A
C1334      C1338   1.508       .  S
C1335      C1340   1.408       .  A
C1335      C1344   1.397       .  A
C1336      H1352   1.110       .  S
C1336      H1353   1.110       .  S
C1336      H1354   1.111       .  S
C1338      H1349   1.111       .  S
C1338      H1350   1.110       .  S
C1338      H1351   1.107       .  S
C1340      C1341   1.402       .  A
C1340      C1345   1.507       .  S
C1341      C1342   1.409       .  A
C1341      H1346   1.084       .  S
C1342      C1343   1.426       .  A
C1343      C1344   1.406       .  A
C1343      C1347   1.509       .  S
C1344      H1348   1.084       .  S
C1345      H1355   1.111       .  S
C1345      H1356   1.110       .  S
C1345      H1357   1.110       .  S
C1347      H1358   1.111       .  S
C1347      H1359   1.110       .  S
C1347      H1360   1.110       .  S
C1361      C1362   1.404       .  A
C1361      C1366   1.409       .  A
C1361      H1371   1.084       .  S
C1362      C1367   1.484       .  S
C1362      C1363   1.411       .  A
C1363      C1364   1.400       .  A
C1363      C1368   1.508       .  S
C1364      C1365   1.403       .  A
C1364      H1369   1.085       .  S
C1365      C1366   1.418       .  A
C1366      C1370   1.507       .  S
C1367      C1372   1.408       .  A
C1367      C1376   1.400       .  A
C1368      H1384   1.110       .  S
C1368      H1385   1.110       .  S
C1368      H1386   1.111       .  S
C1370      H1381   1.110       .  S
C1370      H1382   1.111       .  S
C1370      H1383   1.107       .  S
C1372      C1373   1.405       .  A
C1372      C1377   1.506       .  S
C1373      C1374   1.410       .  A
C1373      H1378   1.084       .  S
C1374      C1375   1.422       .  A
C1375      C1376   1.406       .  A
C1375      C1379   1.508       .  S
C1376      H1380   1.085       .  S
C1377      H1387   1.111       .  S
C1377      H1388   1.110       .  S
C1377      H1389   1.110       .  S
C1379      H1390   1.111       .  S
C1379      H1391   1.110       .  S
C1379      H1392   1.109       .  S
C1393      C1394   1.399       .  A
C1393      C1398   1.401       .  A
C1393      H1403   1.085       .  S
C1394      C1399   1.484       .  S
C1394      C1395   1.411       .  A
C1395      C1396   1.409       .  A
C1395      C1400   1.506       .  S
C1396      C1397   1.409       .  A
C1396      H1401   1.084       .  S
C1397      C1398   1.420       .  A
C1398      C1402   1.509       .  S
C1399      C1404   1.412       .  A
C1399      C1408   1.404       .  A
C1400      H1416   1.110       .  S
C1400      H1417   1.108       .  S
C1400      H1418   1.111       .  S
C1402      H1413   1.110       .  S
C1402      H1414   1.111       .  S
C1402      H1415   1.108       .  S
C1404      C1405   1.401       .  A
C1404      C1409   1.509       .  S
C1405      C1406   1.404       .  A
C1405      H1410   1.085       .  S
C1406      C1407   1.417       .  A
C1407      C1408   1.408       .  A
C1407      C1411   1.508       .  S
C1408      H1412   1.084       .  S
C1409      H1419   1.111       .  S
C1409      H1420   1.110       .  S
C1409      H1421   1.108       .  S
C1411      H1422   1.111       .  S
C1411      H1423   1.107       .  S
C1411      H1424   1.110       .  S
C1425      C1426   1.402       .  A
C1425      C1430   1.401       .  A
C1425      H1435   1.084       .  S
C1426      C1431   1.482       .  S
C1426      C1427   1.412       .  A
C1427      C1428   1.404       .  A
C1427      C1432   1.506       .  S
C1428      C1429   1.403       .  A
C1428      H1433   1.083       .  S
C1429      C1430   1.414       .  A
C1430      C1434   1.508       .  S
C1431      C1436   1.409       .  A
C1431      C1440   1.398       .  A
C1432      H1448   1.109       .  S
C1432      H1449   1.110       .  S
C1432      H1450   1.111       .  S
C1434      H1445   1.110       .  S
C1434      H1446   1.111       .  S
C1434      H1447   1.109       .  S
C1436      C1437   1.405       .  A
C1436      C1441   1.507       .  S
C1437      C1438   1.410       .  A
C1437      H1442   1.084       .  S
C1438      C1439   1.427       .  A
C1439      C1440   1.402       .  A
C1439      C1443   1.510       .  S
C1440      H1444   1.084       .  S
C1441      H1451   1.111       .  S
C1441      H1452   1.109       .  S
C1441      H1453   1.110       .  S
C1443      H1454   1.111       .  S
C1443      H1455   1.110       .  S
C1443      H1456   1.110       .  S
C1457      C1458   1.397       .  A
C1457      C1462   1.403       .  A
C1457      H1467   1.085       .  S
C1458      C1463   1.482       .  S
C1458      C1459   1.407       .  A
C1459      C1460   1.406       .  A
C1459      C1464   1.506       .  S
C1460      C1461   1.412       .  A
C1460      H1465   1.083       .  S
C1461      C1462   1.427       .  A
C1462      C1466   1.510       .  S
C1463      C1468   1.411       .  A
C1463      C1472   1.402       .  A
C1464      H1480   1.110       .  S
C1464      H1481   1.110       .  S
C1464      H1482   1.111       .  S
C1466      H1477   1.110       .  S
C1466      H1478   1.111       .  S
C1466      H1479   1.110       .  S
C1468      C1469   1.403       .  A
C1468      C1473   1.508       .  S
C1469      C1470   1.405       .  A
C1469      H1474   1.084       .  S
C1470      C1471   1.416       .  A
C1471      C1472   1.406       .  A
C1471      C1475   1.507       .  S
C1472      H1476   1.084       .  S
C1473      H1483   1.111       .  S
C1473      H1484   1.110       .  S
C1473      H1485   1.110       .  S
C1475      H1486   1.110       .  S
C1475      H1487   1.108       .  S
C1475      H1488   1.111       .  S
C1489      C1490   1.403       .  A
C1489      C1494   1.407       .  A
C1489      H1499   1.084       .  S
C1490      C1495   1.485       .  S
C1490      C1491   1.412       .  A
C1491      C1492   1.402       .  A
C1491      C1496   1.508       .  S
C1492      C1493   1.403       .  A
C1492      H1497   1.083       .  S
C1493      C1494   1.415       .  A
C1494      C1498   1.507       .  S
C1495      C1500   1.409       .  A
C1495      C1504   1.399       .  A
C1496      H1512   1.110       .  S
C1496      H1513   1.110       .  S
C1496      H1514   1.111       .  S
C1498      H1509   1.111       .  S
C1498      H1510   1.110       .  S
C1498      H1511   1.108       .  S
C1500      C1501   1.403       .  A
C1500      C1505   1.507       .  S
C1501      C1502   1.408       .  A
C1501      H1506   1.084       .  S
C1502      C1503   1.427       .  A
C1503      C1504   1.408       .  A
C1503      C1507   1.509       .  S
C1504      H1508   1.084       .  S
C1505      H1515   1.111       .  S
C1505      H1516   1.110       .  S
C1505      H1517   1.110       .  S
C1507      H1518   1.111       .  S
C1507      H1519   1.110       .  S
C1507      H1520   1.110       .  S
C1521      C1522   1.402       .  A
C1521      C1526   1.399       .  A
C1521      H1531   1.084       .  S
C1522      C1527   1.478       .  S
C1522      C1523   1.414       .  A
C1523      C1524   1.402       .  A
C1523      C1528   1.506       .  S
C1524      C1525   1.402       .  A
C1524      H1529   1.085       .  S
C1525      C1526   1.413       .  A
C1526      C1530   1.508       .  S
C1527      C1532   1.410       .  A
C1527      C1536   1.401       .  A
C1528      H1544   1.110       .  S
C1528      H1545   1.109       .  S
C1528      H1546   1.110       .  S
C1530      H1541   1.111       .  S
C1530      H1542   1.109       .  S
C1530      H1543   1.108       .  S
C1532      C1533   1.402       .  A
C1532      C1537   1.507       .  S
C1533      C1534   1.406       .  A
C1533      H1538   1.083       .  S
C1534      C1535   1.417       .  A
C1535      C1536   1.401       .  A
C1535      C1539   1.509       .  S
C1536      H1540   1.084       .  S
C1537      H1547   1.111       .  S
C1537      H1548   1.109       .  S
C1537      H1549   1.110       .  S
C1539      H1550   1.111       .  S
C1539      H1551   1.108       .  S
C1539      H1552   1.110       .  S
C1553      C1554   1.402       .  A
C1553      C1558   1.410       .  A
C1553      H1563   1.084       .  S
C1554      C1559   1.483       .  S
C1554      C1555   1.410       .  A
C1555      C1556   1.400       .  A
C1555      C1560   1.509       .  S
C1556      C1557   1.406       .  A
C1556      H1561   1.083       .  S
C1557      C1558   1.421       .  A
C1558      C1562   1.507       .  S
C1559      C1564   1.410       .  A
C1559      C1568   1.400       .  A
C1560      H1576   1.110       .  S
C1560      H1577   1.109       .  S
C1560      H1578   1.111       .  S
C1562      H1573   1.110       .  S
C1562      H1574   1.111       .  S
C1562      H1575   1.109       .  S
C1564      C1565   1.406       .  A
C1564      C1569   1.506       .  S
C1565      C1566   1.407       .  A
C1565      H1570   1.084       .  S
C1566      C1567   1.417       .  A
C1567      C1568   1.403       .  A
C1567      C1571   1.503       .  S
C1568      H1572   1.084       .  S
C1569      H1579   1.111       .  S
C1569      H1580   1.110       .  S
C1569      H1581   1.109       .  S
C1571      H1582   1.109       .  S
C1571      H1583   1.110       .  S
C1571      H1584   1.111       .  S
C1585      C1586   1.399       .  A
C1585      C1590   1.405       .  A
C1585      H1595   1.084       .  S
C1586      C1591   1.480       .  S
C1586      C1587   1.409       .  A
C1587      C1588   1.404       .  A
C1587      C1592   1.507       .  S
C1588      C1589   1.408       .  A
C1588      H1593   1.084       .  S
C1589      C1590   1.421       .  A
C1590      C1594   1.509       .  S
C1591      C1596   1.409       .  A
C1591      C1600   1.398       .  A
C1592      H1608   1.110       .  S
C1592      H1609   1.110       .  S
C1592      H1610   1.111       .  S
C1594      H1605   1.111       .  S
C1594      H1606   1.109       .  S
C1594      H1607   1.110       .  S
C1596      C1597   1.407       .  A
C1596      C1601   1.505       .  S
C1597      C1598   1.409       .  A
C1597      H1602   1.084       .  S
C1598      C1599   1.422       .  A
C1599      C1600   1.401       .  A
C1599      C1603   1.510       .  S
C1600      H1604   1.085       .  S
C1601      H1611   1.111       .  S
C1601      H1612   1.110       .  S
C1601      H1613   1.110       .  S
C1603      H1614   1.109       .  S
C1603      H1615   1.110       .  S
C1603      H1616   1.111       .  S
C1617      C1618   1.400       .  A
C1617      C1622   1.402       .  A
C1617      H1627   1.084       .  S
C1618      C1623   1.482       .  S
C1618      C1619   1.410       .  A
C1619      C1620   1.407       .  A
C1619      C1624   1.505       .  S
C1620      C1621   1.406       .  A
C1620      H1625   1.084       .  S
C1621      C1622   1.419       .  A
C1622      C1626   1.510       .  S
C1623      C1628   1.411       .  A
C1623      C1632   1.403       .  A
C1624      H1640   1.110       .  S
C1624      H1641   1.109       .  S
C1624      H1642   1.111       .  S
C1626      H1637   1.109       .  S
C1626      H1638   1.111       .  S
C1626      H1639   1.111       .  S
C1628      C1629   1.402       .  A
C1628      C1633   1.508       .  S
C1629      C1630   1.404       .  A
C1629      H1634   1.085       .  S
C1630      C1631   1.417       .  A
C1631      C1632   1.407       .  A
C1631      C1635   1.508       .  S
C1632      H1636   1.084       .  S
C1633      H1643   1.111       .  S
C1633      H1644   1.110       .  S
C1633      H1645   1.109       .  S
C1635      H1646   1.111       .  S
C1635      H1647   1.107       .  S
C1635      H1648   1.110       .  S
C1649      C1650   1.400       .  A
C1649      C1654   1.399       .  A
C1649      H1659   1.085       .  S
C1650      C1655   1.481       .  S
C1650      C1651   1.410       .  A
C1651      C1652   1.408       .  A
C1651      C1656   1.505       .  S
C1652      C1653   1.406       .  A
C1652      H1657   1.084       .  S
C1653      C1654   1.417       .  A
C1654      C1658   1.510       .  S
C1655      C1660   1.409       .  A
C1655      C1664   1.402       .  A
C1656      H1672   1.110       .  S
C1656      H1673   1.110       .  S
C1656      H1674   1.111       .  S
C1658      H1669   1.111       .  S
C1658      H1670   1.110       .  S
C1658      H1671   1.106       .  S
C1660      C1661   1.399       .  A
C1660      C1665   1.508       .  S
C1661      C1662   1.407       .  A
C1661      H1666   1.084       .  S
C1662      C1663   1.419       .  A
C1663      C1664   1.408       .  A
C1663      C1667   1.507       .  S
C1664      H1668   1.084       .  S
C1665      H1675   1.111       .  S
C1665      H1676   1.110       .  S
C1665      H1677   1.110       .  S
C1667      H1678   1.109       .  S
C1667      H1679   1.110       .  S
C1667      H1680   1.111       .  S
C1681      C1682   1.403       .  A
C1681      C1686   1.409       .  A
C1681      H1691   1.084       .  S
C1682      C1687   1.487       .  S
C1682      C1683   1.412       .  A
C1683      C1684   1.404       .  A
C1683      C1688   1.508       .  S
C1684      C1685   1.404       .  A
C1684      H1689   1.084       .  S
C1685      C1686   1.418       .  A
C1686      C1690   1.507       .  S
C1687      C1692   1.411       .  A
C1687      C1696   1.401       .  A
C1688      H1704   1.110       .  S
C1688      H1705   1.108       .  S
C1688      H1706   1.111       .  S
C1690      H1701   1.111       .  S
C1690      H1702   1.109       .  S
C1690      H1703   1.110       .  S
C1692      C1693   1.407       .  A
C1692      C1697   1.506       .  S
C1693      C1694   1.405       .  A
C1693      H1698   1.084       .  S
C1694      C1695   1.419       .  A
C1695      C1696   1.404       .  A
C1695      C1699   1.510       .  S
C1696      H1700   1.085       .  S
C1697      H1707   1.111       .  S
C1697      H1708   1.110       .  S
C1697      H1709   1.109       .  S
C1699      H1710   1.110       .  S
C1699      H1711   1.106       .  S
C1699      H1712   1.111       .  S
C1713      C1714   1.399       .  A
C1713      C1718   1.403       .  A
C1713      H1723   1.084       .  S
C1714      C1719   1.481       .  S
C1714      C1715   1.411       .  A
C1715      C1716   1.405       .  A
C1715      C1720   1.507       .  S
C1716      C1717   1.406       .  A
C1716      H1721   1.084       .  S
C1717      C1718   1.419       .  A
C1718      C1722   1.508       .  S
C1719      C1724   1.410       .  A
C1719      C1728   1.403       .  A
C1720      H1736   1.110       .  S
C1720      H1737   1.109       .  S
C1720      H1738   1.111       .  S
C1722      H1733   1.111       .  S
C1722      H1734   1.110       .  S
C1722      H1735   1.110       .  S
C1724      C1725   1.399       .  A
C1724      C1729   1.509       .  S
C1725      C1726   1.405       .  A
C1725      H1730   1.084       .  S
C1726      C1727   1.417       .  A
C1727      C1728   1.408       .  A
C1727      C1731   1.507       .  S
C1728      H1732   1.084       .  S
C1729      H1739   1.111       .  S
C1729      H1740   1.110       .  S
C1729      H1741   1.109       .  S
C1731      H1742   1.110       .  S
C1731      H1743   1.106       .  S
C1731      H1744   1.110       .  S
C1745      C1746   1.400       .  A
C1745      C1750   1.401       .  A
C1745      H1755   1.084       .  S
C1746      C1751   1.489       .  S
C1746      C1747   1.413       .  A
C1747      C1748   1.411       .  A
C1747      C1752   1.505       .  S
C1748      C1749   1.407       .  A
C1748      H1753   1.084       .  S
C1749      C1750   1.419       .  A
C1750      C1754   1.510       .  S
C1751      C1756   1.412       .  A
C1751      C1760   1.403       .  A
C1752      H1768   1.110       .  S
C1752      H1769   1.110       .  S
C1752      H1770   1.111       .  S
C1754      H1765   1.111       .  S
C1754      H1766   1.111       .  S
C1754      H1767   1.109       .  S
C1756      C1757   1.404       .  A
C1756      C1761   1.508       .  S
C1757      C1758   1.407       .  A
C1757      H1762   1.084       .  S
C1758      C1759   1.419       .  A
C1759      C1760   1.409       .  A
C1759      C1763   1.507       .  S
C1760      H1764   1.084       .  S
C1761      H1771   1.111       .  S
C1761      H1772   1.109       .  S
C1761      H1773   1.110       .  S
C1763      H1774   1.109       .  S
C1763      H1775   1.111       .  S
C1763      H1776   1.111       .  S
C1777      C1778   1.401       .  A
C1777      C1782   1.398       .  A
C1777      H1787   1.085       .  S
C1778      C1783   1.477       .  S
C1778      C1779   1.411       .  A
C1779      C1780   1.405       .  A
C1779      C1784   1.505       .  S
C1780      C1781   1.403       .  A
C1780      H1785   1.084       .  S
C1781      C1782   1.414       .  A
C1782      C1786   1.510       .  S
C1783      C1788   1.408       .  A
C1783      C1792   1.400       .  A
C1784      H1800   1.110       .  S
C1784      H1801   1.110       .  S
C1784      H1802   1.111       .  S
C1786      H1797   1.111       .  S
C1786      H1798   1.110       .  S
C1786      H1799   1.108       .  S
C1788      C1789   1.402       .  A
C1788      C1793   1.507       .  S
C1789      C1790   1.409       .  A
C1789      H1794   1.084       .  S
C1790      C1791   1.419       .  A
C1791      C1792   1.402       .  A
C1791      C1795   1.509       .  S
C1792      H1796   1.084       .  S
C1793      H1803   1.111       .  S
C1793      H1804   1.109       .  S
C1793      H1805   1.110       .  S
C1795      H1806   1.109       .  S
C1795      H1807   1.110       .  S
C1795      H1808   1.111       .  S
C1809      C1810   1.401       .  A
C1809      C1814   1.401       .  A
C1809      H1819   1.084       .  S
C1810      C1815   1.485       .  S
C1810      C1811   1.413       .  A
C1811      C1812   1.409       .  A
C1811      C1816   1.505       .  S
C1812      C1813   1.405       .  A
C1812      H1817   1.084       .  S
C1813      C1814   1.416       .  A
C1814      C1818   1.509       .  S
C1815      C1820   1.411       .  A
C1815      C1824   1.403       .  A
C1816      H1832   1.109       .  S
C1816      H1833   1.110       .  S
C1816      H1834   1.111       .  S
C1818      H1829   1.111       .  S
C1818      H1830   1.111       .  S
C1818      H1831   1.108       .  S
C1820      C1821   1.405       .  A
C1820      C1825   1.507       .  S
C1821      C1822   1.406       .  A
C1821      H1826   1.084       .  S
C1822      C1823   1.417       .  A
C1823      C1824   1.405       .  A
C1823      C1827   1.509       .  S
C1824      H1828   1.084       .  S
C1825      H1835   1.111       .  S
C1825      H1836   1.109       .  S
C1825      H1837   1.110       .  S
C1827      H1838   1.111       .  S
C1827      H1839   1.109       .  S
C1827      H1840   1.110       .  S
C1841      C1842   1.404       .  A
C1841      C1846   1.408       .  A
C1841      H1851   1.084       .  S
C1842      C1847   1.486       .  S
C1842      C1843   1.411       .  A
C1843      C1844   1.403       .  A
C1843      C1848   1.507       .  S
C1844      C1845   1.405       .  A
C1844      H1849   1.084       .  S
C1845      C1846   1.415       .  A
C1846      C1850   1.506       .  S
C1847      C1852   1.411       .  A
C1847      C1856   1.403       .  A
C1848      H1864   1.110       .  S
C1848      H1865   1.110       .  S
C1848      H1866   1.111       .  S
C1850      H1861   1.110       .  S
C1850      H1862   1.111       .  S
C1850      H1863   1.109       .  S
C1852      C1853   1.403       .  A
C1852      C1857   1.507       .  S
C1853      C1854   1.405       .  A
C1853      H1858   1.084       .  S
C1854      C1855   1.418       .  A
C1855      C1856   1.408       .  A
C1855      C1859   1.507       .  S
C1856      H1860   1.084       .  S
C1857      H1867   1.111       .  S
C1857      H1868   1.110       .  S
C1857      H1869   1.111       .  S
C1859      H1870   1.111       .  S
C1859      H1871   1.107       .  S
C1859      H1872   1.110       .  S
C1873      C1874   1.402       .  A
C1873      C1878   1.408       .  A
C1873      H1883   1.084       .  S
C1874      C1879   1.479       .  S
C1874      C1875   1.410       .  A
C1875      C1876   1.400       .  A
C1875      C1880   1.508       .  S
C1876      C1877   1.404       .  A
C1876      H1881   1.085       .  S
C1877      C1878   1.415       .  A
C1878      C1882   1.506       .  S
C1879      C1884   1.409       .  A
C1879      C1888   1.400       .  A
C1880      H1896   1.110       .  S
C1880      H1897   1.110       .  S
C1880      H1898   1.111       .  S
C1882      H1893   1.110       .  S
C1882      H1894   1.111       .  S
C1882      H1895   1.111       .  S
C1884      C1885   1.404       .  A
C1884      C1889   1.506       .  S
C1885      C1886   1.406       .  A
C1885      H1890   1.083       .  S
C1886      C1887   1.417       .  A
C1887      C1888   1.401       .  A
C1887      C1891   1.509       .  S
C1888      H1892   1.085       .  S
C1889      H1899   1.111       .  S
C1889      H1900   1.110       .  S
C1889      H1901   1.110       .  S
C1891      H1902   1.111       .  S
C1891      H1903   1.108       .  S
C1891      H1904   1.110       .  S
C1905      C1906   1.401       .  A
C1905      C1910   1.406       .  A
C1905      H1915   1.084       .  S
C1906      C1911   1.481       .  S
C1906      C1907   1.409       .  A
C1907      C1908   1.402       .  A
C1907      C1912   1.508       .  S
C1908      C1909   1.408       .  A
C1908      H1913   1.084       .  S
C1909      C1910   1.419       .  A
C1910      C1914   1.507       .  S
C1911      C1916   1.410       .  A
C1911      C1920   1.399       .  A
C1912      H1928   1.110       .  S
C1912      H1929   1.109       .  S
C1912      H1930   1.111       .  S
C1914      H1925   1.111       .  S
C1914      H1926   1.110       .  S
C1914      H1927   1.108       .  S
C1916      C1917   1.407       .  A
C1916      C1921   1.505       .  S
C1917      C1918   1.407       .  A
C1917      H1922   1.084       .  S
C1918      C1919   1.418       .  A
C1919      C1920   1.401       .  A
C1919      C1923   1.509       .  S
C1920      H1924   1.085       .  S
C1921      H1931   1.111       .  S
C1921      H1932   1.110       .  S
C1921      H1933   1.110       .  S
C1923      H1934   1.109       .  S
C1923      H1935   1.109       .  S
C1923      H1936   1.111       .  S
C1937      C1938   1.399       .  A
C1937      C1942   1.405       .  A
C1937      H1947   1.084       .  S
C1938      C1943   1.483       .  S
C1938      C1939   1.410       .  A
C1939      C1940   1.404       .  A
C1939      C1944   1.507       .  S
C1940      C1941   1.408       .  A
C1940      H1945   1.084       .  S
C1941      C1942   1.424       .  A
C1942      C1946   1.509       .  S
C1943      C1948   1.410       .  A
C1943      C1952   1.400       .  A
C1944      H1960   1.109       .  S
C1944      H1961   1.110       .  S
C1944      H1962   1.111       .  S
C1946      H1957   1.110       .  S
C1946      H1958   1.111       .  S
C1946      H1959   1.110       .  S
C1948      C1949   1.407   1_455  A
C1948      C1953   1.505   1_455  S
C1949      C1950   1.407       .  A
C1949      H1954   1.084       .  S
C1950      C1951   1.420   1_655  A
C1951      C1952   1.399       .  A
C1951      C1955   1.511       .  S
C1952      H1956   1.085       .  S
C1953      H1963   1.111       .  S
C1953      H1964   1.109   1_655  S
C1953      H1965   1.110       .  S
C1955      H1966   1.110       .  S
C1955      H1967   1.105       .  S
C1955      H1968   1.110       .  S
C1969      C1970   1.401       .  A
C1969      C1974   1.401       .  A
C1969      H1979   1.085       .  S
C1970      C1975   1.477       .  S
C1970      C1971   1.409       .  A
C1971      C1972   1.402       .  A
C1971      C1976   1.506       .  S
C1972      C1973   1.405       .  A
C1972      H1977   1.084       .  S
C1973      C1974   1.417       .  A
C1974      C1978   1.509       .  S
C1975      C1980   1.410       .  A
C1975      C1984   1.402       .  A
C1976      H1992   1.110       .  S
C1976      H1993   1.110       .  S
C1976      H1994   1.111       .  S
C1978      H1989   1.110       .  S
C1978      H1990   1.111       .  S
C1978      H1991   1.108       .  S
C1980      C1981   1.396       .  A
C1980      C1985   1.509       .  S
C1981      C1982   1.402       .  A
C1981      H1986   1.085       .  S
C1982      C1983   1.418       .  A
C1983      C1984   1.407       .  A
C1983      C1987   1.507       .  S
C1984      H1988   1.084       .  S
C1985      H1995   1.111       .  S
C1985      H1996   1.110       .  S
C1985      H1997   1.110       .  S
C1987      H1998   1.111       .  S
C1987      H1999   1.106       .  S
C1987      H2000   1.110       .  S
C2001      C2002   1.399       .  A
C2001      C2006   1.397       .  A
C2001      H2011   1.085       .  S
C2002      C2007   1.478       .  S
C2002      C2003   1.411       .  A
C2003      C2004   1.407       .  A
C2003      C2008   1.505       .  S
C2004      C2005   1.405       .  A
C2004      H2009   1.084       .  S
C2005      C2006   1.416       .  A
C2006      C2010   1.510       .  S
C2007      C2012   1.410       .  A
C2007      C2016   1.400       .  A
C2008      H2024   1.110       .  S
C2008      H2025   1.109       .  S
C2008      H2026   1.111       .  S
C2010      H2021   1.110       .  S
C2010      H2022   1.111       .  S
C2010      H2023   1.107       .  S
C2012      C2013   1.401       .  A
C2012      C2017   1.509       .  S
C2013      C2014   1.407       .  A
C2013      H2018   1.084       .  S
C2014      C2015   1.421       .  A
C2015      C2016   1.406       .  A
C2015      C2019   1.508       .  S
C2016      H2020   1.084       .  S
C2017      H2027   1.111       .  S
C2017      H2028   1.110       .  S
C2017      H2029   1.109       .  S
C2019      H2030   1.111       .  S
C2019      H2031   1.110       .  S
C2019      H2032   1.111       .  S
C2033      C2034   1.402       .  A
C2033      C2038   1.409       .  A
C2033      H2043   1.084       .  S
C2034      C2039   1.479       .  S
C2034      C2035   1.409       .  A
C2035      C2036   1.398       .  A
C2035      C2040   1.509       .  S
C2036      C2037   1.406       .  A
C2036      H2041   1.084       .  S
C2037      C2038   1.418       .  A
C2038      C2042   1.507       .  S
C2039      C2044   1.409       .  A
C2039      C2048   1.400       .  A
C2040      H2056   1.110       .  S
C2040      H2057   1.110       .  S
C2040      H2058   1.111       .  S
C2042      H2053   1.110       .  S
C2042      H2054   1.111       .  S
C2042      H2055   1.111       .  S
C2044      C2045   1.404       .  A
C2044      C2049   1.506       .  S
C2045      C2046   1.406       .  A
C2045      H2050   1.084       .  S
C2046      C2047   1.417       .  A
C2047      C2048   1.402       .  A
C2047      C2051   1.509       .  S
C2048      H2052   1.085       .  S
C2049      H2059   1.111       .  S
C2049      H2060   1.110       .  S
C2049      H2061   1.110       .  S
C2051      H2062   1.111       .  S
C2051      H2063   1.108       .  S
C2051      H2064   1.110       .  S
C2065      C2066   1.398       .  A
C2065      C2070   1.407       .  A
C2065      H2075   1.084       .  S
C2066      C2071   1.487       .  S
C2066      C2067   1.410       .  A
C2067      C2068   1.407       .  A
C2067      C2072   1.506       .  S
C2068      C2069   1.409       .  A
C2068      H2073   1.084       .  S
C2069      C2070   1.425       .  A
C2070      C2074   1.509       .  S
C2071      C2076   1.411       .  A
C2071      C2080   1.403       .  A
C2072      H2088   1.110       .  S
C2072      H2089   1.110       .  S
C2072      H2090   1.111       .  S
C2074      H2085   1.111       .  S
C2074      H2086   1.111       .  S
C2074      H2087   1.110       .  S
C2076      C2077   1.403       .  A
C2076      C2081   1.508       .  S
C2077      C2078   1.405   1_455  A
C2077      H2082   1.085       .  S
C2078      C2079   1.418       .  A
C2079      C2080   1.409   1_655  A
C2079      C2083   1.508       .  S
C2080      H2084   1.084       .  S
C2081      H2091   1.111       .  S
C2081      H2092   1.110       .  S
C2081      H2093   1.110       .  S
C2083      H2094   1.110       .  S
C2083      H2095   1.107       .  S
C2083      H2096   1.111       .  S
C2097      C2098   1.403       .  A
C2097      C2102   1.408   1_565  A
C2097      H2107   1.084       .  S
C2098      C2103   1.484       .  S
C2098      C2099   1.411       .  A
C2099      C2100   1.401       .  A
C2099      C2104   1.508       .  S
C2100      C2101   1.404   1_565  A
C2100      H2105   1.083       .  S
C2101      C2102   1.417       .  A
C2102      C2106   1.507       .  S
C2103      C2108   1.407       .  A
C2103      C2112   1.400       .  A
C2104      H2120   1.110       .  S
C2104      H2121   1.110       .  S
C2104      H2122   1.111       .  S
C2106      H2117   1.110       .  S
C2106      H2118   1.111       .  S
C2106      H2119   1.107       .  S
C2108      C2109   1.403       .  A
C2108      C2113   1.507       .  S
C2109      C2110   1.411       .  A
C2109      H2114   1.083       .  S
C2110      C2111   1.424       .  A
C2111      C2112   1.407       .  A
C2111      C2115   1.509       .  S
C2112      H2116   1.084       .  S
C2113      H2123   1.111       .  S
C2113      H2124   1.110       .  S
C2113      H2125   1.110       .  S
C2115      H2126   1.110       .  S
C2115      H2127   1.109       .  S
C2115      H2128   1.111       .  S
C2129      C2130   1.401       .  A
C2129      C2134   1.401       .  A
C2129      H2139   1.084       .  S
C2130      C2135   1.483       .  S
C2130      C2131   1.411       .  A
C2131      C2132   1.407       .  A
C2131      C2136   1.505       .  S
C2132      C2133   1.406       .  A
C2132      H2137   1.083       .  S
C2133      C2134   1.416       .  A
C2134      C2138   1.510       .  S
C2135      C2140   1.411       .  A
C2135      C2144   1.401       .  A
C2136      H2152   1.110       .  S
C2136      H2153   1.110       .  S
C2136      H2154   1.111       .  S
C2138      H2149   1.111       .  S
C2138      H2150   1.109       .  S
C2138      H2151   1.111       .  S
C2140      C2141   1.405       .  A
C2140      C2145   1.506       .  S
C2141      C2142   1.406       .  A
C2141      H2146   1.084       .  S
C2142      C2143   1.418       .  A
C2143      C2144   1.403       .  A
C2143      C2147   1.509       .  S
C2144      H2148   1.085       .  S
C2145      H2155   1.111       .  S
C2145      H2156   1.110       .  S
C2145      H2157   1.110       .  S
C2147      H2158   1.110       .  S
C2147      H2159   1.108       .  S
C2147      H2160   1.111       .  S
C2161      C2162   1.403       .  A
C2161      C2166   1.408   1_545  A
C2161      H2171   1.084       .  S
C2162      C2167   1.485       .  S
C2162      C2163   1.410       .  A
C2163      C2164   1.401       .  A
C2163      C2168   1.508       .  S
C2164      C2165   1.405   1_545  A
C2164      H2169   1.084       .  S
C2165      C2166   1.419       .  A
C2166      C2170   1.508       .  S
C2167      C2172   1.409       .  A
C2167      C2176   1.402       .  A
C2168      H2184   1.110       .  S
C2168      H2185   1.111       .  S
C2168      H2186   1.111       .  S
C2170      H2181   1.110       .  S
C2170      H2182   1.111       .  S
C2170      H2183   1.107       .  S
C2172      C2173   1.403       .  A
C2172      C2177   1.507       .  S
C2173      C2174   1.408       .  A
C2173      H2178   1.084       .  S
C2174      C2175   1.420       .  A
C2175      C2176   1.406       .  A
C2175      C2179   1.507       .  S
C2176      H2180   1.084       .  S
C2177      H2187   1.111       .  S
C2177      H2188   1.110       .  S
C2177      H2189   1.110       .  S
C2179      H2190   1.111       .  S
C2179      H2191   1.107       .  S
C2179      H2192   1.110       .  S
C2193      C2194   1.402       .  A
C2193      C2198   1.404       .  A
C2193      H2203   1.084       .  S
C2194      C2199   1.483       .  S
C2194      C2195   1.413       .  A
C2195      C2196   1.404       .  A
C2195      C2200   1.507       .  S
C2196      C2197   1.403       .  A
C2196      H2201   1.084       .  S
C2197      C2198   1.414       .  A
C2198      C2202   1.507       .  S
C2199      C2204   1.409       .  A
C2199      C2208   1.401       .  A
C2200      H2216   1.110       .  S
C2200      H2217   1.111       .  S
C2200      H2218   1.111       .  S
C2202      H2213   1.110       .  S
C2202      H2214   1.111       .  S
C2202      H2215   1.108       .  S
C2204      C2205   1.401       .  A
C2204      C2209   1.508       .  S
C2205      C2206   1.408       .  A
C2205      H2210   1.084       .  S
C2206      C2207   1.421       .  A
C2207      C2208   1.408       .  A
C2207      C2211   1.507       .  S
C2208      H2212   1.084       .  S
C2209      H2219   1.111       .  S
C2209      H2220   1.110       .  S
C2209      H2221   1.110       .  S
C2211      H2222   1.109       .  S
C2211      H2223   1.110       .  S
C2211      H2224   1.111       .  S
C2225      C2226   1.400       .  A
C2225      C2230   1.405       .  A
C2225      H2235   1.084       .  S
C2226      C2231   1.485       .  S
C2226      C2227   1.412       .  A
C2227      C2228   1.406       .  A
C2227      C2232   1.506       .  S
C2228      C2229   1.405       .  A
C2228      H2233   1.084       .  S
C2229      C2230   1.419       .  A
C2230      C2234   1.508       .  S
C2231      C2236   1.412       .  A
C2231      C2240   1.398       .  A
C2232      H2248   1.110       .  S
C2232      H2249   1.110       .  S
C2232      H2250   1.111       .  S
C2234      H2245   1.111       .  S
C2234      H2246   1.110       .  S
C2234      H2247   1.110       .  S
C2236      C2237   1.411   1_455  A
C2236      C2241   1.504       .  S
C2237      C2238   1.406   1_655  A
C2237      H2242   1.084       .  S
C2238      C2239   1.420       .  A
C2239      C2240   1.399       .  A
C2239      C2243   1.510       .  S
C2240      H2244   1.085       .  S
C2241      H2251   1.111   1_455  S
C2241      H2252   1.110       .  S
C2241      H2253   1.110       .  S
C2243      H2254   1.110       .  S
C2243      H2255   1.105       .  S
C2243      H2256   1.110       .  S
C2257      C2258   1.401       .  A
C2257      C2262   1.409       .  A
C2257      H2267   1.084       .  S
C2258      C2263   1.486       .  S
C2258      C2259   1.409       .  A
C2259      C2260   1.401       .  A
C2259      C2264   1.509       .  S
C2260      C2261   1.410       .  A
C2260      H2265   1.083       .  S
C2261      C2262   1.425       .  A
C2262      C2266   1.508       .  S
C2263      C2268   1.413       .  A
C2263      C2272   1.403       .  A
C2264      H2280   1.109       .  S
C2264      H2281   1.110       .  S
C2264      H2282   1.111       .  S
C2266      H2277   1.111       .  S
C2266      H2278   1.110       .  S
C2266      H2279   1.110       .  S
C2268      C2269   1.403       .  A
C2268      C2273   1.508       .  S
C2269      C2270   1.404       .  A
C2269      H2274   1.084       .  S
C2270      C2271   1.417       .  A
C2271      C2272   1.404       .  A
C2271      C2275   1.508       .  S
C2272      H2276   1.084       .  S
C2273      H2283   1.111       .  S
C2273      H2284   1.109       .  S
C2273      H2285   1.110       .  S
C2275      H2286   1.111       .  S
C2275      H2287   1.108       .  S
C2275      H2288   1.110       .  S
C2289      C2290   1.402       .  A
C2289      C2294   1.401       .  A
C2289      H2299   1.084       .  S
C2290      C2295   1.484       .  S
C2290      C2291   1.413       .  A
C2291      C2292   1.407       .  A
C2291      C2296   1.506       .  S
C2292      C2293   1.404       .  A
C2292      H2297   1.084       .  S
C2293      C2294   1.414       .  A
C2294      C2298   1.509       .  S
C2295      C2300   1.412       .  A
C2295      C2304   1.402       .  A
C2296      H2312   1.109       .  S
C2296      H2313   1.110       .  S
C2296      H2314   1.111       .  S
C2298      H2309   1.111       .  S
C2298      H2310   1.111       .  S
C2298      H2311   1.109       .  S
C2300      C2301   1.404       .  A
C2300      C2305   1.506       .  S
C2301      C2302   1.404       .  A
C2301      H2306   1.084       .  S
C2302      C2303   1.418       .  A
C2303      C2304   1.402       .  A
C2303      C2307   1.509       .  S
C2304      H2308   1.084       .  S
C2305      H2315   1.111       .  S
C2305      H2316   1.109       .  S
C2305      H2317   1.110       .  S
C2307      H2318   1.110       .  S
C2307      H2319   1.108       .  S
C2307      H2320   1.111       .  S
C2321      C2322   1.400       .  A
C2321      C2326   1.402       .  A
C2321      H2331   1.085       .  S
C2322      C2327   1.479       .  S
C2322      C2323   1.409       .  A
C2323      C2324   1.403       .  A
C2323      C2328   1.506       .  S
C2324      C2325   1.406       .  A
C2324      H2329   1.083       .  S
C2325      C2326   1.419       .  A
C2326      C2330   1.510       .  S
C2327      C2332   1.410       .  A
C2327      C2336   1.404       .  A
C2328      H2344   1.110       .  S
C2328      H2345   1.109       .  S
C2328      H2346   1.111       .  S
C2330      H2341   1.110       .  S
C2330      H2342   1.111       .  S
C2330      H2343   1.107       .  S
C2332      C2333   1.398       .  A
C2332      C2337   1.509       .  S
C2333      C2334   1.403       .  A
C2333      H2338   1.085       .  S
C2334      C2335   1.415       .  A
C2335      C2336   1.408       .  A
C2335      C2339   1.506       .  S
C2336      H2340   1.084       .  S
C2337      H2347   1.111       .  S
C2337      H2348   1.110       .  S
C2337      H2349   1.109       .  S
C2339      H2350   1.110       .  S
C2339      H2351   1.107       .  S
C2339      H2352   1.110       .  S
C2353      C2354   1.399       .  A
C2353      C2358   1.401       .  A
C2353      H2363   1.085       .  S
C2354      C2359   1.484       .  S
C2354      C2355   1.410       .  A
C2355      C2356   1.409       .  A
C2355      C2360   1.505       .  S
C2356      C2357   1.406       .  A
C2356      H2361   1.084       .  S
C2357      C2358   1.420       .  A
C2358      C2362   1.510       .  S
C2359      C2364   1.412       .  A
C2359      C2368   1.400       .  A
C2360      H2376   1.110       .  S
C2360      H2377   1.110       .  S
C2360      H2378   1.111       .  S
C2362      H2373   1.111       .  S
C2362      H2374   1.110       .  S
C2362      H2375   1.104       .  S
C2364      C2365   1.404       .  A
C2364      C2369   1.507       .  S
C2365      C2366   1.404       .  A
C2365      H2370   1.084       .  S
C2366      C2367   1.420       .  A
C2367      C2368   1.407       .  A
C2367      C2371   1.508       .  S
C2368      H2372   1.084       .  S
C2369      H2379   1.111       .  S
C2369      H2380   1.110       .  S
C2369      H2381   1.110       .  S
C2371      H2382   1.109       .  S
C2371      H2383   1.110       .  S
C2371      H2384   1.111       .  S
C2385      C2386   1.400       .  A
C2385      C2390   1.407       .  A
C2385      H2395   1.084       .  S
C2386      C2391   1.483       .  S
C2386      C2387   1.410       .  A
C2387      C2388   1.402       .  A
C2387      C2392   1.508       .  S
C2388      C2389   1.406       .  A
C2388      H2393   1.084       .  S
C2389      C2390   1.421       .  A
C2390      C2394   1.506       .  S
C2391      C2396   1.410       .  A
C2391      C2400   1.401       .  A
C2392      H2408   1.110       .  S
C2392      H2409   1.109       .  S
C2392      H2410   1.111       .  S
C2394      H2405   1.111       .  S
C2394      H2406   1.109       .  S
C2394      H2407   1.107       .  S
C2396      C2397   1.406       .  A
C2396      C2401   1.506       .  S
C2397      C2398   1.406       .  A
C2397      H2402   1.084   1_565  S
C2398      C2399   1.417       .  A
C2399      C2400   1.403       .  A
C2399      C2403   1.508       .  S
C2400      H2404   1.085       .  S
C2401      H2411   1.111       .  S
C2401      H2412   1.110       .  S
C2401      H2413   1.109       .  S
C2403      H2414   1.110       .  S
C2403      H2415   1.106   1_565  S
C2403      H2416   1.111       .  S
C2417      C2418   1.401       .  A
C2417      C2422   1.407       .  A
C2417      H2427   1.084       .  S
C2418      C2423   1.489       .  S
C2418      C2419   1.410       .  A
C2419      C2420   1.406       .  A
C2419      C2424   1.506       .  S
C2420      C2421   1.410       .  A
C2420      H2425   1.084       .  S
C2421      C2422   1.423       .  A
C2422      C2426   1.508       .  S
C2423      C2428   1.412       .  A
C2423      C2432   1.403       .  A
C2424      H2440   1.109       .  S
C2424      H2441   1.110       .  S
C2424      H2442   1.111       .  S
C2426      H2437   1.111       .  S
C2426      H2438   1.110       .  S
C2426      H2439   1.110       .  S
C2428      C2429   1.408   1_655  A
C2428      C2433   1.506       .  S
C2429      C2430   1.406   1_455  A
C2429      H2434   1.084       .  S
C2430      C2431   1.418       .  A
C2431      C2432   1.404       .  A
C2431      C2435   1.510       .  S
C2432      H2436   1.085       .  S
C2433      H2443   1.111   1_655  S
C2433      H2444   1.109       .  S
C2433      H2445   1.110       .  S
C2435      H2446   1.111       .  S
C2435      H2447   1.106       .  S
C2435      H2448   1.110       .  S
C2449      C2450   1.401       .  A
C2449      C2454   1.409       .  A
C2449      H2459   1.084       .  S
C2450      C2455   1.480       .  S
C2450      C2451   1.410       .  A
C2451      C2452   1.399       .  A
C2451      C2456   1.510       .  S
C2452      C2453   1.408       .  A
C2452      H2457   1.083       .  S
C2453      C2454   1.422       .  A
C2454      C2458   1.507       .  S
C2455      C2460   1.412       .  A
C2455      C2464   1.400       .  A
C2456      H2472   1.110       .  S
C2456      H2473   1.108       .  S
C2456      H2474   1.111       .  S
C2458      H2469   1.110       .  S
C2458      H2470   1.111       .  S
C2458      H2471   1.111       .  S
C2460      C2461   1.406       .  A
C2460      C2465   1.506       .  S
C2461      C2462   1.402       .  A
C2461      H2466   1.084       .  S
C2462      C2463   1.414       .  A
C2463      C2464   1.401       .  A
C2463      C2467   1.510       .  S
C2464      H2468   1.084       .  S
C2465      H2475   1.111       .  S
C2465      H2476   1.110       .  S
C2465      H2477   1.109       .  S
C2467      H2478   1.111       .  S
C2467      H2479   1.111       .  S
C2467      H2480   1.109       .  S
C2481      C2482   1.400       .  A
C2481      C2486   1.405       .  A
C2481      H2491   1.085       .  S
C2482      C2487   1.483       .  S
C2482      C2483   1.411       .  A
C2483      C2484   1.404       .  A
C2483      C2488   1.506       .  S
C2484      C2485   1.405       .  A
C2484      H2489   1.084       .  S
C2485      C2486   1.420       .  A
C2486      C2490   1.508       .  S
C2487      C2492   1.408       .  A
C2487      C2496   1.401       .  A
C2488      H2504   1.110       .  S
C2488      H2505   1.110       .  S
C2488      H2506   1.111       .  S
C2490      H2501   1.110       .  S
C2490      H2502   1.111       .  S
C2490      H2503   1.108   1_545  S
C2492      C2493   1.400       .  A
C2492      C2497   1.508       .  S
C2493      C2494   1.411       .  A
C2493      H2498   1.083       .  S
C2494      C2495   1.423       .  A
C2495      C2496   1.410       .  A
C2495      C2499   1.507       .  S
C2496      H2500   1.084       .  S
C2497      H2507   1.111       .  S
C2497      H2508   1.110       .  S
C2497      H2509   1.110       .  S
C2499      H2510   1.111       .  S
C2499      H2511   1.110       .  S
C2499      H2512   1.110       .  S
C2513      C2514   1.403       .  A
C2513      C2518   1.408       .  A
C2513      H2523   1.084       .  S
C2514      C2519   1.481       .  S
C2514      C2515   1.410       .  A
C2515      C2516   1.398       .  A
C2515      C2520   1.508       .  S
C2516      C2517   1.402       .  A
C2516      H2521   1.085       .  S
C2517      C2518   1.416       .  A
C2518      C2522   1.507       .  S
C2519      C2524   1.407       .  A
C2519      C2528   1.397       .  A
C2520      H2536   1.109       .  S
C2520      H2537   1.110       .  S
C2520      H2538   1.111       .  S
C2522      H2533   1.110       .  S
C2522      H2534   1.109       .  S
C2522      H2535   1.107       .  S
C2524      C2525   1.407       .  A
C2524      C2529   1.505       .  S
C2525      C2526   1.412       .  A
C2525      H2530   1.084       .  S
C2526      C2527   1.426       .  A
C2527      C2528   1.401       .  A
C2527      C2531   1.510       .  S
C2528      H2532   1.085       .  S
C2529      H2539   1.111       .  S
C2529      H2540   1.110       .  S
C2529      H2541   1.111       .  S
C2531      H2542   1.106       .  S
C2531      H2543   1.110       .  S
C2531      H2544   1.111       .  S
C2545      C2546   1.403       .  A
C2545      C2550   1.407       .  A
C2545      H2555   1.084       .  S
C2546      C2551   1.484       .  S
C2546      C2547   1.409       .  A
C2547      C2548   1.401       .  A
C2547      C2552   1.508       .  S
C2548      C2549   1.409       .  A
C2548      H2553   1.084       .  S
C2549      C2550   1.419       .  A
C2550      C2554   1.507       .  S
C2551      C2556   1.410       .  A
C2551      C2560   1.403       .  A
C2552      H2568   1.110       .  S
C2552      H2569   1.111       .  S
C2552      H2570   1.111       .  S
C2554      H2565   1.110       .  S
C2554      H2566   1.111       .  S
C2554      H2567   1.107       .  S
C2556      C2557   1.401       .  A
C2556      C2561   1.508       .  S
C2557      C2558   1.406       .  A
C2557      H2562   1.084       .  S
C2558      C2559   1.417       .  A
C2559      C2560   1.407       .  A
C2559      C2563   1.507   1_655  S
C2560      H2564   1.084       .  S
C2561      H2571   1.111       .  S
C2561      H2572   1.110       .  S
C2561      H2573   1.110       .  S
C2563      H2574   1.111   1_455  S
C2563      H2575   1.111       .  S
C2563      H2576   1.109   1_455  S
C2577      C2578   1.403       .  A
C2577      C2582   1.408   1_545  A
C2577      H2587   1.084       .  S
C2578      C2583   1.487       .  S
C2578      C2579   1.412       .  A
C2579      C2580   1.402       .  A
C2579      C2584   1.508       .  S
C2580      C2581   1.404   1_545  A
C2580      H2585   1.084       .  S
C2581      C2582   1.418       .  A
C2582      C2586   1.508       .  S
C2583      C2588   1.411       .  A
C2583      C2592   1.401       .  A
C2584      H2600   1.110       .  S
C2584      H2601   1.110       .  S
C2584      H2602   1.111       .  S
C2586      H2597   1.110       .  S
C2586      H2598   1.111       .  S
C2586      H2599   1.107       .  S
C2588      C2589   1.405       .  A
C2588      C2593   1.507       .  S
C2589      C2590   1.407       .  A
C2589      H2594   1.084       .  S
C2590      C2591   1.420       .  A
C2591      C2592   1.407       .  A
C2591      C2595   1.508       .  S
C2592      H2596   1.084       .  S
C2593      H2603   1.111       .  S
C2593      H2604   1.110       .  S
C2593      H2605   1.110       .  S
C2595      H2606   1.110       .  S
C2595      H2607   1.109       .  S
C2595      H2608   1.111       .  S
C2609      C2610   1.402       .  A
C2609      C2614   1.401       .  A
C2609      H2619   1.084       .  S
C2610      C2615   1.483       .  S
C2610      C2611   1.414       .  A
C2611      C2612   1.406       .  A
C2611      C2616   1.506       .  S
C2612      C2613   1.402       .  A
C2612      H2617   1.084       .  S
C2613      C2614   1.411       .  A
C2614      C2618   1.506       .  S
C2615      C2620   1.412       .  A
C2615      C2624   1.401       .  A
C2616      H2632   1.109       .  S
C2616      H2633   1.110       .  S
C2616      H2634   1.111       .  S
C2618      H2629   1.111       .  S
C2618      H2630   1.105       .  S
C2618      H2631   1.110       .  S
C2620      C2621   1.407       .  A
C2620      C2625   1.506       .  S
C2621      C2622   1.405       .  A
C2621      H2626   1.084       .  S
C2622      C2623   1.417       .  A
C2623      C2624   1.400       .  A
C2623      C2627   1.509       .  S
C2624      H2628   1.085       .  S
C2625      H2635   1.111       .  S
C2625      H2636   1.109       .  S
C2625      H2637   1.110       .  S
C2627      H2638   1.110       .  S
C2627      H2639   1.107       .  S
C2627      H2640   1.110       .  S
C2641      C2642   1.400       .  A
C2641      C2646   1.408       .  A
C2641      H2651   1.084       .  S
C2642      C2647   1.483       .  S
C2642      C2643   1.408       .  A
C2643      C2644   1.400       .  A
C2643      C2648   1.508       .  S
C2644      C2645   1.411       .  A
C2644      H2649   1.083       .  S
C2645      C2646   1.425       .  A
C2646      C2650   1.508       .  S
C2647      C2652   1.411       .  A
C2647      C2656   1.401       .  A
C2648      H2664   1.110       .  S
C2648      H2665   1.111       .  S
C2648      H2666   1.111       .  S
C2650      H2661   1.110       .  S
C2650      H2662   1.111       .  S
C2650      H2663   1.110       .  S
C2652      C2653   1.402       .  A
C2652      C2657   1.507       .  S
C2653      C2654   1.404       .  A
C2653      H2658   1.085       .  S
C2654      C2655   1.418       .  A
C2655      C2656   1.404       .  A
C2655      C2659   1.506   1_655  S
C2656      H2660   1.085       .  S
C2657      H2667   1.111       .  S
C2657      H2668   1.110       .  S
C2657      H2669   1.110       .  S
C2659      H2670   1.110       .  S
C2659      H2671   1.107       .  S
C2659      H2672   1.110   1_455  S
C2673      C2674   1.404       .  A
C2673      C2678   1.408       .  A
C2673      H2683   1.084       .  S
C2674      C2679   1.483       .  S
C2674      C2675   1.410       .  A
C2675      C2676   1.397       .  A
C2675      C2680   1.509       .  S
C2676      C2677   1.408       .  A
C2676      H2681   1.084       .  S
C2677      C2678   1.419       .  A
C2678      C2682   1.507       .  S
C2679      C2684   1.411       .  A
C2679      C2688   1.404       .  A
C2680      H2696   1.109       .  S
C2680      H2697   1.110       .  S
C2680      H2698   1.111       .  S
C2682      H2693   1.110       .  S
C2682      H2694   1.111       .  S
C2682      H2695   1.105       .  S
C2684      C2685   1.401       .  A
C2684      C2689   1.508       .  S
C2685      C2686   1.405       .  A
C2685      H2690   1.084       .  S
C2686      C2687   1.416       .  A
C2687      C2688   1.404       .  A
C2687      C2691   1.507       .  S
C2688      H2692   1.084       .  S
C2689      H2699   1.111       .  S
C2689      H2700   1.109       .  S
C2689      H2701   1.110       .  S
C2691      H2702   1.110       .  S
C2691      H2703   1.108       .  S
C2691      H2704   1.110       .  S
C2705      C2706   1.402       .  A
C2705      C2710   1.405       .  A
C2705      H2715   1.084       .  S
C2706      C2711   1.479       .  S
C2706      C2707   1.412       .  A
C2707      C2708   1.400       .  A
C2707      C2712   1.509       .  S
C2708      C2709   1.402       .  A
C2708      H2713   1.085       .  S
C2709      C2710   1.415       .  A
C2710      C2714   1.508       .  S
C2711      C2716   1.410       .  A
C2711      C2720   1.399       .  A
C2712      H2728   1.110       .  S
C2712      H2729   1.109       .  S
C2712      H2730   1.111       .  S
C2714      H2725   1.110       .  S
C2714      H2726   1.111       .  S
C2714      H2727   1.108       .  S
C2716      C2717   1.406       .  A
C2716      C2721   1.505       .  S
C2717      C2718   1.405       .  A
C2717      H2722   1.084       .  S
C2718      C2719   1.417       .  A
C2719      C2720   1.401       .  A
C2719      C2723   1.510       .  S
C2720      H2724   1.084       .  S
C2721      H2731   1.111       .  S
C2721      H2732   1.110       .  S
C2721      H2733   1.109       .  S
C2723      H2734   1.111       .  S
C2723      H2735   1.111       .  S
C2723      H2736   1.108       .  S
C2737      C2738   1.402       .  A
C2737      C2742   1.409       .  A
C2737      H2747   1.085       .  S
C2738      C2743   1.484       .  S
C2738      C2739   1.408       .  A
C2739      C2740   1.402       .  A
C2739      C2744   1.507       .  S
C2740      C2741   1.410       .  A
C2740      H2745   1.085       .  S
C2741      C2742   1.421       .  A
C2742      C2746   1.507       .  S
C2743      C2748   1.411       .  A
C2743      C2752   1.401       .  A
C2744      H2760   1.110       .  S
C2744      H2761   1.110       .  S
C2744      H2762   1.111       .  S
C2746      H2757   1.110       .  S
C2746      H2758   1.111       .  S
C2746      H2759   1.109       .  S
C2748      C2749   1.408   1_565  A
C2748      C2753   1.505       .  S
C2749      C2750   1.406       .  A
C2749      H2754   1.083       .  S
C2750      C2751   1.416   1_545  A
C2751      C2752   1.402       .  A
C2751      C2755   1.510       .  S
C2752      H2756   1.084       .  S
C2753      H2763   1.111   1_565  S
C2753      H2764   1.110   1_565  S
C2753      H2765   1.110       .  S
C2755      H2766   1.111       .  S
C2755      H2767   1.109       .  S
C2755      H2768   1.111       .  S
C2769      C2770   1.399       .  A
C2769      C2774   1.402       .  A
C2769      H2779   1.085       .  S
C2770      C2775   1.473       .  S
C2770      C2771   1.408       .  A
C2771      C2772   1.399       .  A
C2771      C2776   1.507       .  S
C2772      C2773   1.404       .  A
C2772      H2777   1.085       .  S
C2773      C2774   1.421       .  A
C2774      C2778   1.510       .  S
C2775      C2780   1.408       .  A
C2775      C2784   1.399       .  A
C2776      H2792   1.110       .  S
C2776      H2793   1.110       .  S
C2776      H2794   1.111       .  S
C2778      H2789   1.111       .  S
C2778      H2790   1.111       .  S
C2778      H2791   1.103       .  S
C2780      C2781   1.405       .  A
C2780      C2785   1.504       .  S
C2781      C2782   1.404       .  A
C2781      H2786   1.084       .  S
C2782      C2783   1.416       .  A
C2783      C2784   1.396       .  A
C2783      C2787   1.510       .  S
C2784      H2788   1.085       .  S
C2785      H2795   1.111       .  S
C2785      H2796   1.110       .  S
C2785      H2797   1.110       .  S
C2787      H2798   1.111       .  S
C2787      H2799   1.107       .  S
C2787      H2800   1.110       .  S
C2801      C2802   1.402       .  A
C2801      C2806   1.407       .  A
C2801      H2811   1.084       .  S
C2802      C2807   1.482       .  S
C2802      C2803   1.410       .  A
C2803      C2804   1.401       .  A
C2803      C2808   1.507       .  S
C2804      C2805   1.405       .  A
C2804      H2809   1.084       .  S
C2805      C2806   1.419       .  A
C2806      C2810   1.508       .  S
C2807      C2812   1.409       .  A
C2807      C2816   1.402       .  A
C2808      H2824   1.110       .  S
C2808      H2825   1.109       .  S
C2808      H2826   1.111       .  S
C2810      H2821   1.110       .  S
C2810      H2822   1.111       .  S
C2810      H2823   1.106       .  S
C2812      C2813   1.402       .  A
C2812      C2817   1.507       .  S
C2813      C2814   1.407       .  A
C2813      H2818   1.084       .  S
C2814      C2815   1.419       .  A
C2815      C2816   1.406       .  A
C2815      C2819   1.507       .  S
C2816      H2820   1.085       .  S
C2817      H2827   1.111       .  S
C2817      H2828   1.110       .  S
C2817      H2829   1.110       .  S
C2819      H2830   1.111       .  S
C2819      H2831   1.107       .  S
C2819      H2832   1.110       .  S
