geometry optimzed in LAMMPS
_audit_creation_date              2020-12-01 
_audit_creation_method            'lammps2cif' 
_symmetry_space_group_name_H-M    'P1' 
_symmetry_Int_Tables_number       1 
_symmetry_cell_setting            triclinic 
loop_ 
_symmetry_equiv_pos_as_xyz 
  x,y,z 
_cell_length_a                    46.65623312 
_cell_length_b                    46.638824663859126 
_cell_length_c                    46.73407572888567 
_cell_angle_alpha                 89.95947742868924 
_cell_angle_beta                  89.92477391957094 
_cell_angle_gamma                 90.05277391975467 
loop_ 
_atom_site_label 
_atom_site_type_symbol 
_atom_site_fract_x 
_atom_site_fract_y 
_atom_site_fract_z 
_atom_site_charge 
O1          O  0.24399880  0.03002229  0.24929747    -0.81800
C2          C  0.27322485  0.96203103  0.15506439     0.97600
O3          O  0.25265220  0.97958298  0.15484528    -0.70900
O4          O  0.22847358  0.96208081  0.20228249    -0.74500
Al5        Al  0.23743660  0.99867828  0.18785859     1.49000
C6          C  0.22634140  0.95580608  0.22842608     0.92800
O7          O  0.29580014  0.96699929  0.24637494    -0.80700
O8          O  0.31316468  0.03795199  0.20614665    -0.74300
Al9        Al  0.27003860  0.99858449  0.24515265     1.90100
O10         O  0.32562218  0.98162755  0.21359824    -0.73400
O11         O  0.28748935  0.02693166  0.15749108    -0.73200
O12         O  0.29569398  0.96815795  0.16867083    -0.78900
O13         O  0.24375010  0.03558837  0.17255499    -0.77100
O14         O  0.27015860  0.00034483  0.20725322    -1.13200
O15         O  0.21411003  0.01654071  0.21589863    -0.72400
C16         C  0.21947077  0.03082210  0.23806278     0.98300
C17         C  0.31984522  0.96521942  0.23416578     0.94700
Al18       Al  0.30285811  0.00338963  0.18786188     1.55600
O19         O  0.23944848  0.97057700  0.24716890    -0.77000
C20         C  0.26575347  0.04309639  0.15878776     0.98900
C21         C  0.31428051  0.04226280  0.23281147     0.93800
O22         O  0.30054218  0.02615712  0.24988388    -0.82300
O23         O  0.75755834  0.96731634  0.25218273    -0.81800
C24         C  0.72817371  0.04036559  0.16012484     0.97600
O25         O  0.74986979  0.02426130  0.16091218    -0.70900
O26         O  0.77480546  0.03794558  0.20938684    -0.74500
Al27       Al  0.76473150  0.00258867  0.19241929     1.49000
C28         C  0.77825024  0.04136156  0.23593659     0.92800
O29         O  0.70882596  0.03273077  0.25292886    -0.80700
O30         O  0.68884474  0.96359414  0.21064161    -0.74300
Al31       Al  0.73287834  0.00002247  0.25024623     1.90100
O32         O  0.67766368  0.02058800  0.22019208    -0.73400
O33         O  0.71344889  0.97519879  0.16205784    -0.73200
O34         O  0.70611056  0.03384812  0.17422441    -0.78900
O35         O  0.75792547  0.96708245  0.17431079    -0.77100
O36         O  0.73223335  0.00029006  0.21210982    -1.13200
O37         O  0.78743740  0.98210204  0.21902681    -0.72400
C38         C  0.78190688  0.96662865  0.24039818     0.98300
C39         C  0.68494282  0.03637035  0.24091297     0.94700
Al40       Al  0.69919989  0.99846915  0.19325060     1.55600
O41         O  0.76482202  0.02580133  0.25367761    -0.77000
C42         C  0.73576825  0.95982347  0.16070224     0.98900
C43         C  0.68792046  0.95844939  0.23704872     0.93800
O44         O  0.70126494  0.97401424  0.25470392    -0.82300
O45         O  0.24439538  0.24573200  0.04431708    -0.81800
C46         C  0.15028534  0.26913707  0.97202026     0.97600
O47         O  0.15329537  0.24684772  0.98702556    -0.70900
O48         O  0.20271185  0.22400286  0.97434454    -0.74500
Al49       Al  0.18511520  0.23399171  0.00932383     1.49000
C50         C  0.22939326  0.22195952  0.97082305     0.92800
O51         O  0.24182042  0.29190028  0.97719355    -0.80700
O52         O  0.20059861  0.31146791  0.04753398    -0.74300
Al53       Al  0.24121883  0.26891471  0.01076981     1.90100
O54         O  0.20819722  0.32206279  0.98977336    -0.73400
O55         O  0.15298547  0.28461305  0.03759081    -0.73200
O56         O  0.16277993  0.29193206  0.97908994    -0.78900
O57         O  0.16603525  0.24002415  0.04420281    -0.77100
O58         O  0.20302547  0.26760657  0.01118162    -1.13200
O59         O  0.21279745  0.21350404  0.03101043    -0.72400
C60         C  0.23326479  0.22116848  0.04689970     0.98300
C61         C  0.22856384  0.31512979  0.97324314     0.94700
Al62       Al  0.18273730  0.29985288  0.01331505     1.55600
O63         O  0.24644124  0.23626221  0.98624213    -0.77000
C64         C  0.15163356  0.26149643  0.05169433     0.98900
C65         C  0.22710318  0.31406764  0.05170640     0.93800
O66         O  0.24479630  0.30164169  0.03545013    -0.82300
O67         O  0.24208260  0.75973588  0.97960995    -0.81800
C68         C  0.14815459  0.73004445  0.04876454     0.97600
O69         O  0.14912542  0.75199324  0.03298789    -0.70900
O70         O  0.19738615  0.77603838  0.04933973    -0.74500
Al71       Al  0.18161303  0.76718078  0.01307809     1.49000
C72         C  0.22393235  0.77903898  0.05354342     0.92800
O73         O  0.23984277  0.70885765  0.04352195    -0.80700
O74         O  0.19924517  0.69257465  0.97205514    -0.74300
Al75       Al  0.23876366  0.73422157  0.01153826     1.90100
O76         O  0.20719753  0.67896932  0.02832660    -0.73400
O77         O  0.15065754  0.71743383  0.98393894    -0.73200
O78         O  0.16182392  0.70785581  0.04189553    -0.78900
O79         O  0.16499805  0.76159260  0.97666211    -0.77100
O80         O  0.20069739  0.73438038  0.01051110    -1.13200
O81         O  0.20937919  0.79000579  0.99425279    -0.72400
C82         C  0.23054753  0.78419013  0.97856618     0.98300
C83         C  0.22752713  0.68476983  0.04505524     0.94700
Al84       Al  0.18120795  0.70181633  0.00688329     1.55600
O85         O  0.24190254  0.76544238  0.03835618    -0.77000
C86         C  0.15147793  0.73968694  0.96850932     0.98900
C87         C  0.22589201  0.69081585  0.96801571     0.93800
O88         O  0.24329955  0.70324683  0.98466483    -0.82300
O89         O  0.97224533  0.24031523  0.76770714    -0.81800
C90         C  0.04428229  0.14586236  0.74745837     0.97600
O91         O  0.02694229  0.14734549  0.76812569    -0.70900
O92         O  0.04168247  0.19722349  0.78914487    -0.74500
Al93       Al  0.00601063  0.18069093  0.78013769     1.49000
C94         C  0.04579888  0.22388818  0.79065065     0.92800
O95         O  0.03832855  0.23602746  0.72002424    -0.80700
O96         O  0.96923749  0.19249040  0.70232113    -0.74300
Al97       Al  0.00518217  0.23574763  0.74370353     1.90100
O98         O  0.02615327  0.20105814  0.69149433    -0.73400
O99         O  0.98001487  0.14620884  0.73141296    -0.73200
O100        O  0.03858986  0.15832088  0.72430758    -0.78900
O101        O  0.97002531  0.16348191  0.77395698    -0.77100
O102        O  0.00479582  0.19774679  0.74619236    -1.13200
O103        O  0.98616758  0.20974587  0.80048249    -0.72400
C104        C  0.97101628  0.23074768  0.79295443     0.98300
C105        C  0.04225202  0.22196039  0.69732687     0.94700
Al106      Al  0.00361104  0.17613548  0.71491659     1.55600
O107        O  0.03089857  0.24111943  0.77576840    -0.77000
C108        C  0.96359028  0.14786114  0.75295789     0.98900
C109        C  0.96442453  0.21872569  0.69844306     0.93800
O110        O  0.97928922  0.23760670  0.71122291    -0.82300
O111        O  0.03384522  0.23816545  0.25172914    -0.81800
C112        C  0.96100762  0.14549343  0.27775902     0.97600
O113        O  0.97702990  0.14657229  0.25597792    -0.70900
O114        O  0.96415899  0.19550514  0.23195769    -0.74500
Al115      Al  0.99930356  0.17839172  0.24211303     1.49000
C116        C  0.96021086  0.22213562  0.22943511     0.92800
O117        O  0.96813611  0.23693539  0.29950966    -0.80700
O118        O  0.03752963  0.19465557  0.31901028    -0.74300
Al119      Al  0.00106132  0.23529359  0.27571512     1.90100
O120        O  0.98054169  0.20354285  0.32981972    -0.73400
O121        O  0.02639339  0.14669634  0.29285644    -0.73200
O122        O  0.96806044  0.15852352  0.30017810    -0.78900
O123        O  0.03456984  0.16003199  0.24877693    -0.77100
O124        O  0.00120324  0.19714275  0.27521579    -1.13200
O125        O  0.02055904  0.20575031  0.22042530    -0.72400
C126        C  0.03595285  0.22681904  0.22738099     0.98300
C127        C  0.96456457  0.22433044  0.32308785     0.94700
Al128      Al  0.00297012  0.17736157  0.30774978     1.55600
O129        O  0.97539546  0.23949187  0.24368970    -0.77000
C130        C  0.04185133  0.14599720  0.27061035     0.98900
C131        C  0.04252365  0.22110532  0.32076020     0.93800
O132        O  0.02699166  0.23909329  0.30769442    -0.82300
O133        O  0.96849372  0.76475270  0.24885708    -0.81800
C134        C  0.04422747  0.85456146  0.27408079     0.97600
O135        O  0.02773193  0.85472282  0.25272688    -0.70900
O136        O  0.03976724  0.80514119  0.23007892    -0.74500
Al137      Al  0.00506998  0.82343943  0.23903193     1.49000
C138        C  0.04298517  0.77843512  0.22821162     0.92800
O139        O  0.03345542  0.76518075  0.29873201    -0.80700
O140        O  0.96460731  0.81070899  0.31484161    -0.74300
Al141      Al  0.00087187  0.76726242  0.27387285     1.90100
O142        O  0.02040806  0.79935033  0.32771852    -0.73400
O143        O  0.97926198  0.85765739  0.28816070    -0.73200
O144        O  0.03667060  0.84235563  0.29686721    -0.78900
O145        O  0.97032896  0.84305596  0.24462633    -0.77100
O146        O  0.00191018  0.80536490  0.27237143    -1.13200
O147        O  0.98360363  0.79656544  0.21762157    -0.72400
C148        C  0.96723695  0.77619359  0.22436870     0.98300
C149        C  0.03633489  0.77829588  0.32221388     0.94700
Al150      Al  0.00036726  0.82597497  0.30427074     1.55600
O151        O  0.02708667  0.76155108  0.24242037    -0.77000
C152        C  0.96415189  0.85859962  0.26570501     0.98900
C153        C  0.95930410  0.78446560  0.31836576     0.93800
O154        O  0.97409270  0.76552736  0.30559853    -0.82300
O155        O  0.75706859  0.75811750  0.04218298    -0.81800
C156        C  0.85137232  0.73858725  0.96837481     0.97600
O157        O  0.84840331  0.75988699  0.98470421    -0.70900
O158        O  0.79741471  0.77837507  0.97089905    -0.74500
Al159      Al  0.81523704  0.77119418  0.00619403     1.49000
C160        C  0.77077926  0.77810665  0.96649170     0.92800
O161        O  0.76115873  0.70760576  0.97779734    -0.80700
O162        O  0.80729320  0.69368393  0.04567644    -0.74300
Al163      Al  0.76157102  0.73285018  0.00988355     1.90100
O164        O  0.79798410  0.68117643  0.98971787    -0.73400
O165        O  0.85223033  0.72445660  0.03224813    -0.73200
O166        O  0.83925372  0.71523349  0.97446971    -0.78900
O167        O  0.83381127  0.76673924  0.04170550    -0.77100
O168        O  0.79949433  0.73664511  0.00895770    -1.13200
O169        O  0.78624310  0.79127455  0.02629476    -0.72400
C170        C  0.76603079  0.78368186  0.04244297     0.98300
C171        C  0.77600368  0.68522984  0.97472543     0.94700
Al172      Al  0.82237085  0.70617396  0.01039086     1.55600
O173        O  0.75424996  0.76363402  0.98266326    -0.77000
C174        C  0.85022852  0.74630591  0.04812225     0.98900
C175        C  0.78130501  0.68900840  0.05136477     0.93800
O176        O  0.76167938  0.70124750  0.03703306    -0.82300
O177        O  0.24839962  0.96768722  0.77100975    -0.81800
C178        C  0.27261562  0.04136238  0.86390404     0.97600
O179        O  0.25079635  0.02543436  0.86209787    -0.70900
O180        O  0.22846522  0.03845240  0.81243191    -0.74500
Al181      Al  0.23775327  0.00327426  0.83003134     1.49000
C182        C  0.22651798  0.04185175  0.78572942     0.92800
O183        O  0.29712905  0.03375215  0.77281353    -0.80700
O184        O  0.31512601  0.96450945  0.81628675    -0.74300
Al185      Al  0.27288880  0.00069948  0.77414677     1.90100
O186        O  0.32617263  0.02132008  0.80729935    -0.73400
O187        O  0.28751001  0.97656263  0.86344519    -0.73200
O188        O  0.29531379  0.03449309  0.85117391    -0.78900
O189        O  0.24373804  0.96794058  0.84864242    -0.77100
O190        O  0.27135879  0.00101069  0.81222460    -1.13200
O191        O  0.21667068  0.98221478  0.80235672    -0.72400
C192        C  0.22355977  0.96619250  0.78175504     0.98300
C193        C  0.32033976  0.03719164  0.78629698     0.94700
Al194      Al  0.30333216  0.99935514  0.83291977     1.55600
O195        O  0.24103877  0.02641381  0.76880672    -0.77000
C196        C  0.26535100  0.96099821  0.86316136     0.98900
C197        C  0.31842092  0.95992517  0.78994419     0.93800
O198        O  0.30505157  0.97481010  0.77162712    -0.82300
O199        O  0.03559424  0.76473484  0.76649560    -0.81800
C200        C  0.96318838  0.85859619  0.74238310     0.97600
O201        O  0.97995464  0.85652656  0.76333458    -0.70900
O202        O  0.96512275  0.80693362  0.78618527    -0.74500
Al203      Al  0.00076480  0.82378992  0.77629098     1.49000
C204        C  0.96148032  0.78013788  0.78844412     0.92800
O205        O  0.96980260  0.76559739  0.71743407    -0.80700
O206        O  0.03754157  0.80950575  0.69786104    -0.74300
Al207      Al  0.00266294  0.76758603  0.74186410     1.90100
O208        O  0.98032663  0.80094583  0.68859022    -0.73400
O209        O  0.02741566  0.85651390  0.72602134    -0.73200
O210        O  0.96863979  0.84518843  0.71969575    -0.78900
O211        O  0.03665530  0.84113111  0.76943280    -0.77100
O212        O  0.00227450  0.80569458  0.74282946    -1.13200
O213        O  0.02073621  0.79598343  0.79784214    -0.72400
C214        C  0.03699516  0.77556886  0.79120698     0.98300
C215        C  0.96514410  0.77935362  0.69462669     0.94700
Al216      Al  0.00336349  0.82638434  0.71071687     1.55600
O217        O  0.97653601  0.76296985  0.77369056    -0.77000
C218        C  0.04378437  0.85529279  0.74757775     0.98900
C219        C  0.04352195  0.78326018  0.69644497     0.93800
O220        O  0.02905769  0.76480001  0.71015456    -0.82300
O221        O  0.76033549  0.24202463  0.97823960    -0.81800
C222        C  0.85561893  0.26676792  0.04846742     0.97600
O223        O  0.85358832  0.24499245  0.03256122    -0.70900
O224        O  0.80496553  0.22070067  0.04561652    -0.74500
Al225      Al  0.82156342  0.23180233  0.01049344     1.49000
C226        C  0.77859952  0.21900145  0.05104250     0.92800
O227        O  0.76470271  0.28992378  0.04419378    -0.80700
O228        O  0.80565539  0.30934364  0.97371063    -0.74300
Al229      Al  0.76494870  0.26619033  0.01104832     1.90100
O230        O  0.79776031  0.32017228  0.03069010    -0.73400
O231        O  0.85378111  0.28289901  0.98430910    -0.73200
O232        O  0.84232996  0.28943406  0.04250136    -0.78900
O233        O  0.83992126  0.23906567  0.97524509    -0.77100
O234        O  0.80310401  0.26517727  0.00966470    -1.13200
O235        O  0.79376137  0.21085731  0.98923691    -0.72400
C236        C  0.77175176  0.21768338  0.97523066     0.98300
C237        C  0.77764945  0.31341082  0.04745739     0.94700
Al238      Al  0.82326166  0.29768405  0.00793009     1.55600
O239        O  0.76090071  0.23400005  0.03692761    -0.77000
C240        C  0.85511273  0.26050657  0.96912387     0.98900
C241        C  0.77912842  0.31136572  0.96917671     0.93800
O242        O  0.76122849  0.29856900  0.98520606    -0.82300
O243        O  0.75965443  0.03634715  0.77233739    -0.81800
C244        C  0.72881554  0.95810222  0.86022614     0.97600
O245        O  0.75125686  0.97308737  0.85947142    -0.70900
O246        O  0.77701812  0.96362712  0.81051981    -0.74500
Al247      Al  0.76593016  0.99745087  0.82995170     1.49000
C248        C  0.78046090  0.96203645  0.78378797     0.92800
O249        O  0.71026856  0.97123711  0.76608076    -0.80700
O250        O  0.68788319  0.03581315  0.81186360    -0.74300
Al251      Al  0.73476036  0.00368359  0.77171316     1.90100
O252        O  0.67977391  0.97922133  0.80085427    -0.73400
O253        O  0.71302206  0.02493355  0.85977014    -0.73200
O254        O  0.70690576  0.96615730  0.84696432    -0.78900
O255        O  0.75875090  0.03115341  0.85084847    -0.77100
O256        O  0.73341543  0.00093625  0.80992527    -1.13200
O257        O  0.78869923  0.02072127  0.80558415    -0.72400
C258        C  0.78307100  0.03804391  0.78573833     0.98300
C259        C  0.68658170  0.96623679  0.77820986     0.94700
Al260      Al  0.69986603  0.00142003  0.82840676     1.55600
O261        O  0.76644684  0.97815034  0.76720399    -0.77000
C262        C  0.73600238  0.03901818  0.86295392     0.98900
C263        C  0.68832821  0.04341810  0.78612459     0.93800
O264        O  0.70350069  0.03025560  0.76802782    -0.82300
O265        O  0.46824278  0.25580440  0.27717877    -0.81800
C266        C  0.54023738  0.23478574  0.37166163     0.97600
O267        O  0.52451930  0.25658022  0.36889736    -0.70900
O268        O  0.53796229  0.27817400  0.31901622    -0.74500
Al269      Al  0.50270537  0.26869467  0.33642569     1.49000
C270        C  0.54143784  0.27999643  0.29230948     0.92800
O271        O  0.53513457  0.20937746  0.28123915    -0.80700
O272        O  0.46464962  0.19060721  0.32310004    -0.74300
Al273      Al  0.50163142  0.23246224  0.28128315     1.90100
O274        O  0.52216151  0.17997017  0.31541753    -0.73400
O275        O  0.47538042  0.21891634  0.36984538    -0.73200
O276        O  0.53392783  0.21170208  0.35925837    -0.78900
O277        O  0.46747077  0.26285174  0.35496512    -0.77100
O278        O  0.50103021  0.23466705  0.31928105    -1.13200
O279        O  0.48170428  0.28872462  0.30799156    -0.72400
C280        C  0.46636789  0.28084495  0.28726617     0.98300
C281        C  0.53866252  0.18634440  0.29491979     0.94700
Al282      Al  0.49918773  0.20293204  0.34033297     1.55600
O283        O  0.52642076  0.26481473  0.27570617    -0.77000
C284        C  0.46044525  0.24151194  0.36986312     0.98900
C285        C  0.46103256  0.18704215  0.29665365     0.93800
O286        O  0.47682794  0.19963992  0.27858820    -0.82300
O287        O  0.26525486  0.47317827  0.26749921    -0.81800
C288        C  0.36040361  0.54019605  0.23990992     0.97600
O289        O  0.35970680  0.52416785  0.26163589    -0.70900
O290        O  0.31119782  0.54230956  0.28293191    -0.74500
Al291      Al  0.32624318  0.50547841  0.27631066     1.49000
C292        C  0.28486438  0.54778684  0.28480863     0.92800
O293        O  0.27130814  0.53560809  0.21547123    -0.80700
O294        O  0.31053786  0.46239058  0.20242392    -0.74300
Al295      Al  0.27039948  0.50425835  0.24138975     1.90100
O296        O  0.30394694  0.51847252  0.18678242    -0.73400
O297        O  0.35826529  0.47435174  0.22888746    -0.73200
O298        O  0.34802641  0.53260414  0.21724128    -0.78900
O299        O  0.34243481  0.46877514  0.27272371    -0.77100
O300        O  0.30828579  0.50214127  0.24301058    -1.13200
O301        O  0.29708704  0.48799680  0.29872380    -0.72400
C302        C  0.27558488  0.47293517  0.29242582     0.98300
C303        C  0.28454174  0.53651036  0.19192784     0.94700
Al304      Al  0.32877108  0.49732314  0.21134713     1.55600
O305        O  0.26681553  0.53238144  0.27152625    -0.77000
C306        C  0.35748977  0.46026707  0.25205790     0.98900
C307        C  0.28385974  0.45914099  0.19953921     0.93800
O308        O  0.26644798  0.47652693  0.21102991    -0.82300
O309        O  0.25377372  0.26410382  0.47594428    -0.81800
C310        C  0.23329220  0.35851674  0.54863010     0.97600
O311        O  0.25532527  0.35554053  0.53317713    -0.70900
O312        O  0.27720183  0.30556734  0.54495607    -0.74500
Al313      Al  0.26725149  0.32357429  0.51030221     1.49000
C314        C  0.27857455  0.27886845  0.54882564     0.92800
O315        O  0.20750427  0.26853953  0.54282642    -0.80700
O316        O  0.18964134  0.31100217  0.47274655    -0.74300
Al317      Al  0.23061420  0.26838354  0.50926144     1.90100
O318        O  0.17856509  0.30288321  0.52969291    -0.73400
O319        O  0.21764377  0.35780165  0.48386905    -0.73200
O320        O  0.21022059  0.34655112  0.54168775    -0.78900
O321        O  0.26123590  0.34293024  0.47558607    -0.77100
O322        O  0.23322267  0.30652670  0.50879865    -1.13200
O323        O  0.28670529  0.29556414  0.48814702    -0.72400
C324        C  0.27840904  0.27487335  0.47292846     0.98300
C325        C  0.18454908  0.28244484  0.54627501     0.94700
Al326      Al  0.20168915  0.32785826  0.50713591     1.55600
O327        O  0.26311456  0.26226950  0.53401812    -0.77000
C328        C  0.24002008  0.35801061  0.46868862     0.98900
C329        C  0.18518268  0.28472308  0.46885722     0.93800
O330        O  0.19759975  0.26616027  0.48427054    -0.82300
O331        O  0.25489403  0.73670929  0.54035689    -0.81800
C332        C  0.23101357  0.64535086  0.46597572     0.97600
O333        O  0.25267684  0.64596954  0.48211666    -0.70900
O334        O  0.27560870  0.69558488  0.46993000    -0.74500
Al335      Al  0.26599845  0.67763886  0.50474805     1.49000
C336        C  0.27782428  0.72226852  0.46664987     0.92800
O337        O  0.20672508  0.73439548  0.47402455    -0.80700
O338        O  0.18957401  0.69097578  0.54433491    -0.74300
Al339      Al  0.23079112  0.73352849  0.50732617     1.90100
O340        O  0.17724215  0.70087364  0.48806702    -0.73400
O341        O  0.21642824  0.64368747  0.53141187    -0.73200
O342        O  0.20808698  0.65733051  0.47347085    -0.78900
O343        O  0.26004980  0.65853025  0.53953720    -0.77100
O344        O  0.23246019  0.69544492  0.50721244    -1.13200
O345        O  0.28690365  0.70507495  0.52645019    -0.72400
C346        C  0.27948069  0.72553887  0.54240720     0.98300
C347        C  0.18334434  0.72093903  0.47105113     0.94700
Al348      Al  0.20048070  0.67475169  0.50915358     1.55600
O349        O  0.26313402  0.73920532  0.48197594    -0.77000
C350        C  0.23898735  0.64324147  0.54642279     0.98900
C351        C  0.18596523  0.71734481  0.54879607     0.93800
O352        O  0.19838768  0.73585550  0.53318959    -0.82300
O353        O  0.26112598  0.53546356  0.75276720    -0.81800
C354        C  0.35372785  0.46184134  0.77753779     0.97600
O355        O  0.35340678  0.47935047  0.75690467    -0.70900
O356        O  0.30460381  0.46631388  0.73282646    -0.74500
Al357      Al  0.32150474  0.50139596  0.74338366     1.49000
C358        C  0.27800255  0.46240431  0.73032959     0.92800
O359        O  0.26317705  0.46900287  0.80054586    -0.80700
O360        O  0.30598436  0.53850509  0.82003900    -0.74300
Al361      Al  0.26457036  0.50237934  0.77700166     1.90100
O362        O  0.29622398  0.48166628  0.83094452    -0.73400
O363        O  0.35398007  0.52622388  0.79401527    -0.73200
O364        O  0.34053225  0.46791128  0.80025803    -0.78900
O365        O  0.33964116  0.53683828  0.75082328    -0.77100
O366        O  0.30269819  0.50259346  0.77633768    -1.13200
O367        O  0.29402227  0.52214209  0.72202395    -0.72400
C368        C  0.27204055  0.53657023  0.72804259     0.98300
C369        C  0.27606127  0.46509365  0.82390483     0.94700
Al370      Al  0.32264333  0.50351103  0.80870748     1.55600
O371        O  0.26037894  0.47708262  0.74483274    -0.77000
C372        C  0.35455054  0.54272504  0.77253874     0.98900
C373        C  0.27952103  0.54360501  0.82194511     0.93800
O374        O  0.26134437  0.52804865  0.80912968    -0.82300
O375        O  0.53042115  0.74308421  0.27160990    -0.81800
C376        C  0.46337427  0.76774511  0.36845637     0.97600
O377        O  0.47904173  0.74567333  0.36648425    -0.70900
O378        O  0.46288622  0.72381938  0.31767085    -0.74500
Al379      Al  0.49924060  0.73211807  0.33314683     1.49000
C380        C  0.45732511  0.72302113  0.29132948     0.92800
O381        O  0.46700821  0.79416528  0.28012503    -0.80700
O382        O  0.54060369  0.80688633  0.31893940    -0.74300
Al383      Al  0.49892114  0.76860089  0.27812479     1.90100
O384        O  0.48456813  0.82228325  0.31299122    -0.73400
O385        O  0.52872347  0.77995136  0.36659216    -0.73200
O386        O  0.47098927  0.79066361  0.35644430    -0.78900
O387        O  0.53593113  0.73687950  0.34953028    -0.77100
O388        O  0.50139171  0.76595043  0.31594412    -1.13200
O389        O  0.51806552  0.71103454  0.30374361    -0.72400
C390        C  0.53228849  0.71810782  0.28189728     0.98300
C391        C  0.46642561  0.81760364  0.29365788     0.94700
Al392      Al  0.50586258  0.79736010  0.33713778     1.55600
O393        O  0.47171929  0.73796928  0.27381957    -0.77000
C394        C  0.54392510  0.75767486  0.36467663     0.98900
C395        C  0.54363410  0.81037656  0.29233562     0.93800
O396        O  0.52601971  0.79947703  0.27484942    -0.82300
O397        O  0.73851694  0.53183803  0.26680745    -0.81800
C398        C  0.64422901  0.46046682  0.24155441     0.97600
O399        O  0.64661751  0.47607339  0.26336772    -0.70900
O400        O  0.69568178  0.46186518  0.28669135    -0.74500
Al401      Al  0.67877400  0.49737882  0.27663147     1.49000
C402        C  0.72234723  0.45806492  0.28907563     0.92800
O403        O  0.73709081  0.46611657  0.21890959    -0.80700
O404        O  0.69488547  0.53513160  0.19868650    -0.74300
Al405      Al  0.73548349  0.49902715  0.24265788     1.90100
O406        O  0.70307423  0.47768891  0.18887497    -0.73400
O407        O  0.64709931  0.52520948  0.22598594    -0.73200
O408        O  0.65779210  0.46632090  0.21904937    -0.78900
O409        O  0.66056500  0.53280180  0.27021650    -0.77100
O410        O  0.69729773  0.49920753  0.24331305    -1.13200
O411        O  0.70630826  0.51792606  0.29800456    -0.72400
C412        C  0.72751930  0.53325530  0.29143338     0.98300
C413        C  0.72419094  0.46210877  0.19558904     0.94700
Al414      Al  0.67727679  0.50091794  0.21088206     1.55600
O415        O  0.73979279  0.47332845  0.27485125    -0.77000
C416        C  0.64588035  0.53989969  0.24878935     0.98900
C417        C  0.72134019  0.54007735  0.19686236     0.93800
O418        O  0.73923528  0.52490466  0.21047758    -0.82300
O419        O  0.74777388  0.73160779  0.47265717    -0.81800
C420        C  0.77513136  0.64276588  0.55020362     0.97600
O421        O  0.75361236  0.64322796  0.53397775    -0.70900
O422        O  0.72817001  0.69232027  0.54460939    -0.74500
Al423      Al  0.73951740  0.67375175  0.51053332     1.49000
C424        C  0.72434482  0.71905441  0.54643772     0.92800
O425        O  0.79489265  0.73581380  0.53949413    -0.80700
O426        O  0.81765658  0.69069025  0.47317992    -0.74300
Al427      Al  0.77144998  0.73146817  0.50621237     1.90100
O428        O  0.82608297  0.70213021  0.52989309    -0.73400
O429        O  0.79190911  0.64242713  0.48555458    -0.73200
O430        O  0.79731161  0.65670562  0.54379071    -0.78900
O431        O  0.74732268  0.65427084  0.47645743    -0.77100
O432        O  0.77222617  0.69335087  0.50822362    -1.13200
O433        O  0.71749799  0.69914046  0.48779459    -0.72400
C434        C  0.72405225  0.71870820  0.47045136     0.98300
C435        C  0.81860691  0.72370509  0.54437790     0.94700
Al436      Al  0.80544748  0.67443385  0.50814807     1.55600
O437        O  0.73872190  0.73595666  0.53083177    -0.77000
C438        C  0.76980746  0.64101436  0.46996773     0.98900
C439        C  0.81806989  0.71692545  0.46673788     0.93800
O440        O  0.80361392  0.73493023  0.48085806    -0.82300
O441        O  0.74084804  0.46946736  0.75499698    -0.81800
C442        C  0.64674280  0.54124630  0.77840268     0.97600
O443        O  0.64863433  0.52514522  0.75681706    -0.70900
O444        O  0.69843135  0.53984818  0.73545460    -0.74500
Al445      Al  0.68146380  0.50408535  0.74380703     1.49000
C446        C  0.72510878  0.54393776  0.73349459     0.92800
O447        O  0.73718769  0.53472384  0.80398438    -0.80700
O448        O  0.69437940  0.46406176  0.82008970    -0.74300
Al449      Al  0.73684404  0.50208547  0.77954712     1.90100
O450        O  0.70292643  0.52065346  0.83275618    -0.73400
O451        O  0.64731449  0.47638960  0.79230723    -0.73200
O452        O  0.65943142  0.53468521  0.80122395    -0.78900
O453        O  0.66362575  0.46829536  0.74902710    -0.77100
O454        O  0.69879936  0.50165550  0.77749942    -1.13200
O455        O  0.70994638  0.48404585  0.72275219    -0.72400
C456        C  0.73057211  0.46828373  0.73004756     0.98300
C457        C  0.72340188  0.53737067  0.82709588     0.94700
Al458      Al  0.67760796  0.49916367  0.80903311     1.55600
O459        O  0.74219883  0.52844191  0.74783015    -0.77000
C460        C  0.64821262  0.46112087  0.76995464     0.98900
C461        C  0.72080470  0.45965662  0.82348027     0.93800
O462        O  0.73922900  0.47577694  0.81159703    -0.82300
O463        O  0.47244180  0.74395600  0.74712674    -0.81800
C464        C  0.53986909  0.76289565  0.64808058     0.97600
O465        O  0.52382429  0.74158215  0.65210764    -0.70900
O466        O  0.54021535  0.72273593  0.70240621    -0.74500
Al467      Al  0.50393318  0.73075820  0.68621186     1.49000
C468        C  0.54584348  0.72311759  0.72884905     0.92800
O469        O  0.53662600  0.79475920  0.73827484    -0.80700
O470        O  0.46639658  0.80991482  0.69696725    -0.74300
Al471      Al  0.50426105  0.76942311  0.73999825     1.90100
O472        O  0.52362788  0.82063836  0.70169511    -0.73400
O473        O  0.47470425  0.77854765  0.65176037    -0.73200
O474        O  0.53399233  0.78647033  0.65966910    -0.78900
O475        O  0.46759796  0.73530067  0.66896190    -0.77100
O476        O  0.50243836  0.76553854  0.70205553    -1.13200
O477        O  0.48499609  0.71110961  0.71616811    -0.72400
C478        C  0.47125545  0.71843550  0.73812267     0.98300
C479        C  0.54022718  0.81645080  0.72247108     0.94700
Al480      Al  0.49988538  0.79621090  0.67932760     1.55600
O481        O  0.53143881  0.73889457  0.74554637    -0.77000
C482        C  0.45989926  0.75582572  0.65320796     0.98900
C483        C  0.46194059  0.81321882  0.72331018     0.93800
O484        O  0.47726091  0.80066813  0.74183102    -0.82300
O485        O  0.53519752  0.25917786  0.74157596    -0.81800
C486        C  0.46008437  0.23311002  0.65079927     0.97600
O487        O  0.47516491  0.25551929  0.65220542    -0.70900
O488        O  0.46396210  0.27936718  0.70145383    -0.74500
Al489      Al  0.49844803  0.26930455  0.68300038     1.49000
C490        C  0.46096496  0.28188442  0.72809124     0.92800
O491        O  0.46844737  0.21146677  0.74172712    -0.80700
O492        O  0.53795476  0.19313156  0.69783945    -0.74300
Al493      Al  0.50193224  0.23525402  0.73966679     1.90100
O494        O  0.48142432  0.18119413  0.70846588    -0.73400
O495        O  0.52496584  0.21853617  0.65042986    -0.73200
O496        O  0.46727154  0.21076252  0.66394305    -0.78900
O497        O  0.53276493  0.26306226  0.66305838    -0.77100
O498        O  0.50111790  0.23609796  0.70153263    -1.13200
O499        O  0.52101704  0.29046067  0.70943255    -0.72400
C500        C  0.53773847  0.28323658  0.72934507     0.98300
C501        C  0.46479219  0.18803249  0.72860795     0.94700
Al502      Al  0.50274371  0.20362694  0.68172413     1.55600
O503        O  0.47683727  0.26784725  0.74504499    -0.77000
C504        C  0.53961288  0.24126132  0.64889464     0.98900
C505        C  0.54295066  0.18980832  0.72402783     0.93800
O506        O  0.52767686  0.20260531  0.74252233    -0.82300
O507        O  0.74812937  0.26102607  0.54489731    -0.81800
C508        C  0.77083394  0.35511389  0.47228984     0.97600
O509        O  0.74997617  0.35362924  0.48941053    -0.70900
O510        O  0.72701977  0.30436992  0.47646850    -0.74500
Al511      Al  0.73743798  0.32134539  0.51141599     1.49000
C512        C  0.72473054  0.27778592  0.47217875     0.92800
O513        O  0.79570564  0.26377741  0.47884560    -0.80700
O514        O  0.81642626  0.30619221  0.54689288    -0.74300
Al515      Al  0.77205772  0.26486621  0.51202420     1.90100
O516        O  0.82508551  0.29844602  0.48981539    -0.73400
O517        O  0.78845747  0.35347836  0.53780458    -0.73200
O518        O  0.79388493  0.34269808  0.47855377    -0.78900
O519        O  0.74432258  0.33971224  0.54650869    -0.77100
O520        O  0.77097298  0.30310656  0.51247261    -1.13200
O521        O  0.71666385  0.29365710  0.53261904    -0.72400
C522        C  0.72372408  0.27227860  0.54739349     0.98300
C523        C  0.81857273  0.27739968  0.47419745     0.94700
Al524      Al  0.80322695  0.32363107  0.51321146     1.55600
O525        O  0.73974089  0.26035916  0.48656387    -0.77000
C526        C  0.76613528  0.35405055  0.55323415     0.98900
C527        C  0.81790830  0.27986243  0.55254875     0.93800
O528        O  0.80424773  0.26160138  0.53784359    -0.82300
C529        C  0.60025944  0.26602102  0.60101115    -0.22500
C530        C  0.62146965  0.24600305  0.60820998     0.09500
C531        C  0.61503495  0.22348627  0.62725423     0.09900
C532        C  0.58736968  0.22153013  0.63885824    -0.17400
C533        C  0.56624357  0.24184679  0.63209965    -0.27800
C534        C  0.57263013  0.26421412  0.61268986     0.18200
C535        C  0.64991591  0.24857979  0.59455337     0.12200
C536        C  0.63748695  0.20190190  0.63565222    -0.12200
H537        H  0.58257153  0.20483226  0.65421496     0.12500
C538        C  0.55076596  0.28611429  0.60344758    -0.23000
H539        H  0.60528377  0.28306316  0.58603130     0.08100
C540        C  0.65485466  0.23714437  0.56709204     0.04500
C541        C  0.68086429  0.24292613  0.55328536    -0.20200
C542        C  0.70186157  0.26001453  0.56626277    -0.12500
C543        C  0.69752219  0.27039542  0.59430262     0.13200
C544        C  0.67150905  0.26440471  0.60824672    -0.23000
C545        C  0.63221174  0.21988616  0.55186927    -0.06000
H546        H  0.68402020  0.23572893  0.53159791     0.14700
C547        C  0.71932709  0.28881151  0.60941113    -0.16200
H548        H  0.66758751  0.27306507  0.62939565     0.09000
H549        H  0.54889371  0.28586023  0.57976251     0.06900
H550        H  0.55775720  0.30778259  0.61036830     0.08100
H551        H  0.52909479  0.28193514  0.61225521     0.07100
H552        H  0.65574658  0.21302884  0.64608174     0.02000
H553        H  0.64535504  0.19047925  0.61635606     0.02500
H554        H  0.62890121  0.18572528  0.65087313     0.06000
H555        H  0.63963159  0.21256497  0.53050412     0.05000
H556        H  0.61268633  0.23311823  0.54878268    -0.00800
H557        H  0.62665714  0.20066389  0.56476170     0.00700
H558        H  0.70993210  0.31017755  0.61403992     0.04300
H559        H  0.73914773  0.29201889  0.59665646     0.06300
H560        H  0.72549880  0.27846379  0.62989717     0.07100
C561        C  0.59045826  0.40341260  0.77020667    -0.22500
C562        C  0.60697656  0.37915113  0.76345647     0.09500
C563        C  0.63692477  0.38196265  0.76033189     0.09900
C564        C  0.64940963  0.40917309  0.76249086    -0.17400
C565        C  0.63292883  0.43352373  0.76873029    -0.27800
C566        C  0.60309307  0.43061862  0.77315079     0.18200
C567        C  0.59212766  0.35198280  0.75620058     0.12200
C568        C  0.65579295  0.35628341  0.75502961    -0.12200
H569        H  0.67231394  0.41151180  0.75928416     0.12500
C570        C  0.58377490  0.45571828  0.77946322    -0.23000
H571        H  0.56739326  0.40128699  0.77217227     0.08100
C572        C  0.57726146  0.33544487  0.77675866     0.04500
C573        C  0.56108034  0.31163199  0.76774760    -0.20200
C574        C  0.55943071  0.30427406  0.73867636    -0.12500
C575        C  0.57600058  0.31968691  0.71844921     0.13200
C576        C  0.59187208  0.34349193  0.72746030    -0.23000
C577        C  0.57834512  0.34300890  0.80804711    -0.06000
H578        H  0.54857235  0.29962830  0.78321053     0.14700
C579        C  0.57723860  0.31111359  0.68733918    -0.16200
H580        H  0.60354335  0.35611319  0.71183679     0.09000
H581        H  0.57315146  0.45242812  0.80048779     0.06900
H582        H  0.56706546  0.45729562  0.76264021     0.08100
H583        H  0.59527160  0.47648125  0.78004943     0.07100
H584        H  0.65044768  0.34618291  0.73424602     0.02000
H585        H  0.65271058  0.34040067  0.77248002     0.02500
H586        H  0.67884011  0.36227454  0.75444803     0.06000
H587        H  0.56618498  0.32737349  0.82127674     0.05000
H588        H  0.56890814  0.36453462  0.81160220    -0.00800
H589        H  0.60095593  0.34304292  0.81543476     0.00700
H590        H  0.55613616  0.31443630  0.67701606     0.04300
H591        H  0.58360154  0.28824030  0.68553510     0.06300
H592        H  0.59315374  0.32407349  0.67524349     0.07100
C593        C  0.59450620  0.59957210  0.75605703    -0.22500
C594        C  0.60906722  0.62414317  0.76548208     0.09500
C595        C  0.63444055  0.62114697  0.78156376     0.09900
C596        C  0.64529276  0.59356868  0.78684889    -0.17400
C597        C  0.63161006  0.56899427  0.77601850    -0.27800
C598        C  0.60564157  0.57202529  0.76076487     0.18200
C599        C  0.59764439  0.65260934  0.75708695     0.12200
C600        C  0.65064725  0.64700220  0.79210436    -0.12200
H601        H  0.66541425  0.59128617  0.79821458     0.12500
C602        C  0.58948721  0.54639003  0.74955640    -0.23000
H603        H  0.57474884  0.60208799  0.74413700     0.08100
C604        C  0.59881705  0.66200743  0.72842770     0.04500
C605        C  0.58369585  0.68667336  0.72038601    -0.20200
C606        C  0.56729461  0.70232111  0.74028198    -0.12500
C607        C  0.56880966  0.69450310  0.76970764     0.13200
C608        C  0.58369613  0.66950057  0.77755653    -0.23000
C609        C  0.61565854  0.64574375  0.70617666    -0.06000
H610        H  0.58363043  0.69291278  0.69804689     0.14700
C611        C  0.55418845  0.71145998  0.79301872    -0.16200
H612        H  0.58344440  0.66237294  0.79964679     0.09000
H613        H  0.60220112  0.53536116  0.73279166     0.06900
H614        H  0.56872432  0.55267961  0.73980479     0.08100
H615        H  0.58494097  0.53126984  0.76735309     0.07100
H616        H  0.63704926  0.65951251  0.80705211     0.02000
H617        H  0.65678247  0.66077045  0.77369316     0.02500
H618        H  0.67050604  0.64082427  0.80364995     0.06000
H619        H  0.61505887  0.65658064  0.68501062     0.05000
H620        H  0.60670698  0.62387703  0.70345155    -0.00800
H621        H  0.63840663  0.64412639  0.71293932     0.00700
H622        H  0.55898021  0.70270274  0.81459708     0.04300
H623        H  0.53058251  0.71083445  0.79035754     0.06300
H624        H  0.56183400  0.73400563  0.79253127     0.07100
C625        C  0.78179308  0.38413593  0.62717323    -0.22500
C626        C  0.75773888  0.40153281  0.63133916     0.09500
C627        C  0.73735781  0.40455004  0.60926814     0.09900
C628        C  0.74112175  0.38936750  0.58366136    -0.17400
C629        C  0.76502199  0.37162913  0.57947232    -0.27800
C630        C  0.78564417  0.36895176  0.60152553     0.18200
C631        C  0.75421890  0.41665821  0.65889900     0.12200
C632        C  0.71158900  0.42367536  0.61284509    -0.12200
H633        H  0.72521889  0.39117465  0.56684557     0.12500
C634        C  0.81075866  0.34889411  0.59890551    -0.23000
H635        H  0.79728702  0.38200012  0.64434200     0.08100
C636        C  0.73862311  0.40445400  0.68180738     0.04500
C637        C  0.73311794  0.42103533  0.70630074    -0.20200
C638        C  0.74279904  0.44942693  0.70807380    -0.12500
C639        C  0.75931377  0.46114599  0.68557651     0.13200
C640        C  0.76509980  0.44450003  0.66132847    -0.23000
C641        C  0.72701402  0.37437356  0.67989911    -0.06000
H642        H  0.71992045  0.41238899  0.72340271     0.14700
C643        C  0.77016544  0.49151143  0.68686020    -0.16200
H644        H  0.77713258  0.45361459  0.64364570     0.09000
H645        H  0.80278974  0.32666267  0.59607817     0.06900
H646        H  0.82442505  0.34921706  0.61835274     0.08100
H647        H  0.82435794  0.35518082  0.58044713     0.07100
H648        H  0.71868551  0.44606778  0.61670162     0.02000
H649        H  0.69850927  0.41630172  0.63129032     0.02500
H650        H  0.69776335  0.42355094  0.59351176     0.06000
H651        H  0.71516572  0.36820243  0.69960408     0.05000
H652        H  0.74496084  0.35905547  0.67688571    -0.00800
H653        H  0.71209793  0.37259228  0.66149969     0.00700
H654        H  0.78401883  0.49396301  0.70595555     0.04300
H655        H  0.75187646  0.50663413  0.68823375     0.06300
H656        H  0.78298023  0.49724155  0.66764036     0.07100
C657        C  0.75597588  0.58911418  0.60836899    -0.22500
C658        C  0.76240305  0.60512329  0.63298031     0.09500
C659        C  0.77569375  0.63216113  0.63011730     0.09900
C660        C  0.78138123  0.64296824  0.60262904    -0.17400
C661        C  0.77322977  0.62777889  0.57799286    -0.27800
C662        C  0.76069925  0.60032607  0.58087116     0.18200
C663        C  0.75310815  0.59374146  0.66120075     0.12200
C664        C  0.78254874  0.65023259  0.65591426    -0.12200
H665        H  0.79072496  0.66412787  0.60035722     0.12500
C666        C  0.75230672  0.58278632  0.55512254    -0.23000
H667        H  0.74611268  0.56821040  0.61075719     0.08100
C668        C  0.72377898  0.59180550  0.66823487     0.04500
C669        C  0.71551839  0.57723999  0.69313144    -0.13000
C670        C  0.73583964  0.56473170  0.71160522    -0.12500
C671        C  0.76539462  0.56989468  0.70624119     0.13200
C672        C  0.77359761  0.58376171  0.68072745    -0.23000
C673        C  0.70108007  0.60499034  0.64940962    -0.06000
H674        H  0.69285531  0.57466670  0.69742742     0.14700
C675        C  0.78846436  0.56138660  0.72714131    -0.16200
H676        H  0.79612876  0.58619562  0.67561688     0.09000
H677        H  0.74431941  0.56122293  0.56135648     0.06900
H678        H  0.77116317  0.57987479  0.54090504     0.08100
H679        H  0.73490950  0.59364251  0.54313590     0.07100
H680        H  0.79825214  0.63898014  0.66972400     0.02000
H681        H  0.76266111  0.65436885  0.66831551     0.02500
H682        H  0.79195365  0.67123881  0.64975208     0.06000
H683        H  0.67930634  0.60251428  0.65873322     0.05000
H684        H  0.70101480  0.59459196  0.62808069    -0.00800
H685        H  0.70537447  0.62827461  0.64681155     0.00700
H686        H  0.79000403  0.53779079  0.72890429     0.04300
H687        H  0.78369702  0.57072620  0.74847577     0.06300
H688        H  0.80986227  0.56935409  0.72035034     0.07100
C689        C  0.66204529  0.76355343  0.57513943    -0.22500
C690        C  0.64948389  0.74388028  0.59398128     0.09500
C691        C  0.66340192  0.71769511  0.59973994     0.09900
C692        C  0.68893087  0.71113889  0.58533611    -0.17400
C693        C  0.70087826  0.73002173  0.56505101    -0.27800
C694        C  0.68759604  0.75711525  0.56058943     0.18200
C695        C  0.62113903  0.75058407  0.60658815     0.12200
C696        C  0.65118212  0.69652725  0.62089610    -0.12200
H697        H  0.69905623  0.69060430  0.58926528     0.12500
C698        C  0.69919083  0.77903172  0.53980811    -0.23000
H699        H  0.65120833  0.78371019  0.57110923     0.08100
C700        C  0.61810545  0.77061898  0.62893089     0.04500
C701        C  0.59095442  0.77511703  0.64100379    -0.20200
C702        C  0.56682990  0.75965143  0.63164177    -0.12500
C703        C  0.56987693  0.73990589  0.60882015     0.13200
C704        C  0.59696882  0.73598888  0.59632241    -0.23000
C705        C  0.64365263  0.78645013  0.64072076    -0.06000
H706        H  0.58884098  0.78987985  0.65878767     0.14700
C707        C  0.54483338  0.72298221  0.59739161    -0.16200
H708        H  0.59953959  0.72086913  0.57889918     0.09000
H709        H  0.68598403  0.79883416  0.53946791     0.06900
H710        H  0.69922992  0.77013607  0.51777542     0.08100
H711        H  0.72125285  0.78533011  0.54612069     0.07100
H712        H  0.62986500  0.68896035  0.61358031     0.02000
H713        H  0.64890876  0.70690092  0.64215202     0.02500
H714        H  0.66519020  0.67744486  0.62340743     0.06000
H715        H  0.63760622  0.80071682  0.65876573     0.05000
H716        H  0.65346295  0.79991573  0.62374659    -0.00800
H717        H  0.65976781  0.77085003  0.64864556     0.00700
H718        H  0.55085028  0.71027542  0.57821304     0.04300
H719        H  0.52725282  0.73776362  0.59122004     0.06300
H720        H  0.53703843  0.70763989  0.61381061     0.07100
C721        C  0.77919695  0.37933655  0.39421725    -0.22500
C722        C  0.75444332  0.39594991  0.39073308     0.09500
C723        C  0.73593982  0.40010157  0.41424312     0.09900
C724        C  0.74254249  0.38744598  0.44068132    -0.17400
C725        C  0.76722117  0.37047456  0.44442673    -0.27800
C726        C  0.78586975  0.36644188  0.42063064     0.18200
C727        C  0.74872038  0.40972994  0.36259590     0.12200
C728        C  0.70927597  0.41810824  0.41151108    -0.12200
H729        H  0.72798578  0.39061276  0.45848955     0.12500
C730        C  0.81239507  0.34804124  0.42230999    -0.23000
H731        H  0.79327621  0.37629989  0.37599993     0.08100
C732        C  0.76391189  0.43440768  0.35388123     0.04500
C733        C  0.75617265  0.44830862  0.32839903    -0.20200
C734        C  0.73327741  0.43843085  0.31152349    -0.12500
C735        C  0.71910357  0.41271319  0.31943611     0.13200
C736        C  0.72692278  0.39881300  0.34499090    -0.23000
C737        C  0.78735145  0.44693337  0.37218710    -0.06000
H738        H  0.76696494  0.46806435  0.32257055     0.14700
C739        C  0.69597294  0.39915567  0.30140902    -0.16200
H740        H  0.71565177  0.37953098  0.35146321     0.09000
H741        H  0.82742418  0.35690714  0.43844152     0.06900
H742        H  0.82399998  0.34719590  0.40155955     0.08100
H743        H  0.80641811  0.32572271  0.42806960     0.07100
H744        H  0.69462832  0.40848264  0.39547294     0.02000
H745        H  0.71513274  0.44014441  0.40465001     0.02500
H746        H  0.69746581  0.41964645  0.43210542     0.06000
H747        H  0.79644667  0.46677566  0.36263955     0.05000
H748        H  0.80501678  0.43120067  0.37456978    -0.00800
H749        H  0.77869062  0.45237078  0.39365026     0.00700
H750        H  0.70172598  0.37651120  0.29686063     0.04300
H751        H  0.69311328  0.40985554  0.28043521     0.06300
H752        H  0.67529754  0.39957247  0.31319089     0.07100
C753        C  0.76630243  0.62546915  0.39095246    -0.22500
C754        C  0.76258323  0.59572984  0.39107707     0.09500
C755        C  0.76399550  0.58040243  0.41711707     0.09900
C756        C  0.76810164  0.59550387  0.44280262    -0.17400
C757        C  0.77036964  0.62546092  0.44273801    -0.27800
C758        C  0.76994662  0.64062655  0.41648013     0.18200
C759        C  0.75429431  0.58163529  0.36405920     0.12200
C760        C  0.76005896  0.54835224  0.41781577    -0.12200
H761        H  0.76822854  0.58411144  0.46301373     0.12500
C762        C  0.77279586  0.67282142  0.41455076    -0.23000
H763        H  0.76517224  0.63705952  0.37085790     0.08100
C764        C  0.72560990  0.58221500  0.35469190     0.04500
C765        C  0.71823475  0.56792878  0.32947814    -0.20200
C766        C  0.73869066  0.55252215  0.31368849    -0.12500
C767        C  0.76761663  0.55222187  0.32293459     0.13200
C768        C  0.77508859  0.56726304  0.34787095    -0.23000
C769        C  0.70257156  0.59699468  0.37186185    -0.06000
H770        H  0.69605367  0.56775876  0.32263579     0.14700
C771        C  0.79084929  0.53504084  0.30848661    -0.16200
H772        H  0.79704818  0.56690971  0.35532658     0.09000
H773        H  0.75368497  0.68193807  0.40373753     0.06900
H774        H  0.79212209  0.67834791  0.40179647     0.08100
H775        H  0.77480055  0.68333981  0.43566243     0.07100
H776        H  0.77696849  0.53791601  0.40474218     0.02000
H777        H  0.73870642  0.54263466  0.40902289     0.02500
H778        H  0.76145328  0.53976966  0.43994462     0.06000
H779        H  0.68116331  0.59481006  0.36171457     0.05000
H780        H  0.70749253  0.62019699  0.37374520    -0.00800
H781        H  0.70136932  0.58741212  0.39359319     0.00700
H782        H  0.80809736  0.54970426  0.30109616     0.04300
H783        H  0.78335219  0.52255037  0.28988284     0.06300
H784        H  0.80006147  0.51957560  0.32402976     0.07100
C785        C  0.60361712  0.75727989  0.41992465    -0.22500
C786        C  0.62742716  0.75211102  0.40228656     0.09500
C787        C  0.62377669  0.75030183  0.37242550     0.09900
C788        C  0.59613629  0.75250382  0.36093526    -0.17400
C789        C  0.57214010  0.75657409  0.37861872    -0.27800
C790        C  0.57591412  0.75958837  0.40846156     0.18200
C791        C  0.65497089  0.74448459  0.41594822     0.12200
C792        C  0.64901807  0.74584384  0.35281398    -0.12200
H793        H  0.59315755  0.75089497  0.33798013     0.12500
C794        C  0.55128031  0.76381342  0.42892126    -0.23000
H795        H  0.60653884  0.75834287  0.44291509     0.08100
C796        C  0.67391154  0.76522307  0.42709578     0.04500
C797        C  0.69773994  0.75624035  0.44321135    -0.20200
C798        C  0.70256798  0.72700804  0.44868854    -0.12500
C799        C  0.68448799  0.70625525  0.43569983     0.13200
C800        C  0.66100797  0.71536146  0.41948460    -0.23000
C801        C  0.66858844  0.79668661  0.42239251    -0.06000
H802        H  0.71168179  0.77212501  0.45287261     0.14700
C803        C  0.68949704  0.67442287  0.43878266    -0.16200
H804        H  0.64651018  0.69963759  0.41037830     0.09000
H805        H  0.55407558  0.78441547  0.44048090     0.06900
H806        H  0.55099509  0.74604746  0.44475058     0.08100
H807        H  0.53011614  0.76412011  0.41822418     0.07100
H808        H  0.65955929  0.72509824  0.35771723     0.02000
H809        H  0.66468880  0.76352138  0.35577825     0.02500
H810        H  0.64246897  0.74559745  0.32997897     0.06000
H811        H  0.68556192  0.81007939  0.43233580     0.05000
H812        H  0.64767790  0.80284119  0.43191377    -0.00800
H813        H  0.66822554  0.80132997  0.39908652     0.00700
H814        H  0.68563252  0.66746710  0.46113978     0.04300
H815        H  0.71172246  0.66909157  0.43235215     0.06300
H816        H  0.67480459  0.66176539  0.42499899     0.07100
C817        C  0.59553979  0.67155072  0.26068771    -0.22500
C818        C  0.58119184  0.64603620  0.25359472     0.09500
C819        C  0.55100428  0.64587118  0.25214858     0.09900
C820        C  0.53577126  0.67073156  0.25940168    -0.17400
C821        C  0.54995728  0.69577315  0.26818421    -0.27800
C822        C  0.58027168  0.69651134  0.26807705     0.18200
C823        C  0.59769342  0.61888698  0.25154764     0.12200
C824        C  0.53482763  0.61910710  0.24405903    -0.12200
H825        H  0.51252097  0.67023258  0.25957263     0.12500
C826        C  0.59713146  0.72247363  0.27730521    -0.23000
H827        H  0.61874229  0.67157321  0.26186736     0.08100
C828        C  0.60980516  0.60916551  0.22567020     0.04500
C829        C  0.62461980  0.58287754  0.22518747    -0.20200
C830        C  0.62791847  0.56624585  0.25012818    -0.12500
C831        C  0.61528608  0.57599949  0.27600461     0.13200
C832        C  0.60036843  0.60213066  0.27627069    -0.23000
C833        C  0.60722885  0.62663823  0.19870871    -0.06000
H834        H  0.63431630  0.57566265  0.20537900     0.14700
C835        C  0.61667852  0.55880714  0.30332675    -0.16200
H836        H  0.59063672  0.60965172  0.29597893     0.09000
H837        H  0.61137981  0.72944229  0.25956380     0.06900
H838        H  0.61051677  0.71687205  0.29610939     0.08100
H839        H  0.58340463  0.74088984  0.28328280     0.07100
H840        H  0.53948660  0.60174122  0.25961810     0.02000
H841        H  0.54139499  0.61206600  0.22233968     0.02500
H842        H  0.51129285  0.62271130  0.24389916     0.06000
H843        H  0.61789921  0.61600074  0.18030286     0.05000
H844        H  0.61739903  0.64792591  0.20189453    -0.00800
H845        H  0.58428136  0.62969475  0.19327801     0.00700
H846        H  0.63906510  0.55775065  0.31121152     0.04300
H847        H  0.60835657  0.53681998  0.29952988     0.06300
H848        H  0.60358468  0.56862674  0.32059788     0.07100
C849        C  0.39970727  0.33544523  0.73411907    -0.22500
C850        C  0.41007671  0.35314930  0.75603522     0.09500
C851        C  0.43516297  0.34532948  0.77087881     0.09900
C852        C  0.45021987  0.32067820  0.76252083    -0.17400
C853        C  0.44100893  0.30389992  0.73930814    -0.27800
C854        C  0.41489852  0.31088534  0.72546499     0.18200
C855        C  0.39571883  0.38094005  0.76167865     0.12200
C856        C  0.44659118  0.36364355  0.79483582    -0.12200
H857        H  0.47017014  0.31544747  0.77312386     0.12500
C858        C  0.40282632  0.29254934  0.70175520    -0.23000
H859        H  0.38020920  0.34147284  0.72309602     0.08100
C860        C  0.40286697  0.40559932  0.74574108     0.04500
C861        C  0.38956315  0.43175648  0.75218225    -0.20200
C862        C  0.36900208  0.43399771  0.77412512    -0.12500
C863        C  0.36166914  0.40898422  0.78997347     0.13200
C864        C  0.37533498  0.38285124  0.78360716    -0.23000
C865        C  0.42455383  0.40427380  0.72185100    -0.06000
H866        H  0.39510925  0.45054134  0.73971183     0.14700
C867        C  0.33883426  0.40914869  0.81285980    -0.16200
H868        H  0.36998372  0.36371049  0.79562910     0.09000
H869        H  0.38120581  0.29992609  0.69512055     0.06900
H870        H  0.40088705  0.26999001  0.70914918     0.08100
H871        H  0.41682058  0.29347746  0.68257854     0.07100
H872        H  0.43038237  0.36509161  0.81218757     0.02000
H873        H  0.45139357  0.38552412  0.78675567     0.02500
H874        H  0.46657530  0.35462919  0.80405008     0.06000
H875        H  0.42773632  0.42552279  0.71157597     0.05000
H876        H  0.41716491  0.38902547  0.70518050    -0.00800
H877        H  0.44552688  0.39698456  0.73034821     0.00700
H878        H  0.31813300  0.41634835  0.80362050     0.04300
H879        H  0.34522655  0.42360596  0.83059802     0.06300
H880        H  0.33539486  0.38748948  0.82215397     0.07100
C881        C  0.44946385  0.64548768  0.76580542    -0.22500
C882        C  0.41977148  0.64849146  0.76737727     0.09500
C883        C  0.40731323  0.67589180  0.76403018     0.09900
C884        C  0.42491317  0.69944501  0.75691098    -0.17400
C885        C  0.45453334  0.69587201  0.75293473    -0.27800
C886        C  0.46701425  0.66869443  0.75866701     0.18200
C887        C  0.40240241  0.62194804  0.76900008     0.12200
C888        C  0.37545293  0.67993109  0.76712629    -0.12200
H889        H  0.41530506  0.72019704  0.75263251     0.12500
C890        C  0.49873424  0.66299827  0.75686128    -0.23000
H891        H  0.45895216  0.62443535  0.76882494     0.08100
C892        C  0.39323769  0.60812011  0.74381452     0.04500
C893        C  0.37818162  0.58221055  0.74581827    -0.20200
C894        C  0.37249430  0.56920389  0.77240072    -0.12500
C895        C  0.38266267  0.58275497  0.79771865     0.13200
C896        C  0.39742513  0.60901860  0.79558952    -0.23000
C897        C  0.39986963  0.62044992  0.71470628    -0.06000
H898        H  0.37094819  0.57196862  0.72630228     0.14700
C899        C  0.37788189  0.57022986  0.82709012    -0.16200
H900        H  0.40529723  0.61949850  0.81470855     0.09000
H901        H  0.50311581  0.64706018  0.73976810     0.06900
H902        H  0.50647194  0.65435628  0.77760870     0.08100
H903        H  0.51121327  0.68248094  0.75230108     0.07100
H904        H  0.36866497  0.67336427  0.78895102     0.02000
H905        H  0.36391217  0.66663215  0.75117859     0.02500
H906        H  0.36914989  0.70265481  0.76384630     0.06000
H907        H  0.39133016  0.60679240  0.69721820     0.05000
H908        H  0.42343753  0.62217644  0.71184526    -0.00800
H909        H  0.39018620  0.64205379  0.71258012     0.00700
H910        H  0.38703227  0.58403201  0.84415205     0.04300
H911        H  0.38845270  0.54897139  0.82868636     0.06300
H912        H  0.35458793  0.56808649  0.83134110     0.07100
C913        C  0.26677156  0.60177381  0.61094450    -0.22500
C914        C  0.24141502  0.59718059  0.62629069     0.09500
C915        C  0.21511042  0.60654379  0.61488665     0.09900
C916        C  0.21483599  0.62065187  0.58828991    -0.17400
C917        C  0.24035170  0.62579642  0.57298512    -0.27800
C918        C  0.26671001  0.61592158  0.58449321     0.18200
C919        C  0.24338968  0.58117549  0.65358693     0.12200
C920        C  0.18748071  0.60162234  0.63081276    -0.12200
H921        H  0.19461750  0.62835194  0.57976536     0.12500
C922        C  0.29488487  0.61953305  0.56899010    -0.23000
H923        H  0.28684604  0.59408522  0.61983581     0.08100
C924        C  0.24692368  0.55117824  0.65341321     0.04500
C925        C  0.25433820  0.53718330  0.67878886    -0.20200
C926        C  0.25843257  0.55239543  0.70437381    -0.12500
C927        C  0.25312207  0.58215147  0.70507891     0.13200
C928        C  0.24563319  0.59631655  0.67950492    -0.23000
C929        C  0.24386291  0.53403269  0.62624281    -0.06000
H930        H  0.25826140  0.51427966  0.67840012     0.14700
C931        C  0.25704026  0.59907161  0.73219931    -0.16200
H932        H  0.24293775  0.61938486  0.67940099     0.09000
H933        H  0.31262338  0.60823168  0.58010751     0.06900
H934        H  0.30086731  0.64253524  0.56792994     0.08100
H935        H  0.29323962  0.61053183  0.54706318     0.07100
H936        H  0.18838871  0.61245754  0.65193592     0.02000
H937        H  0.18412645  0.57828466  0.63411943     0.02500
H938        H  0.16877881  0.61021820  0.61888551     0.06000
H939        H  0.24699337  0.51072651  0.63005991     0.05000
H940        H  0.26005444  0.54108752  0.61030075    -0.00800
H941        H  0.22208048  0.53716563  0.61725329     0.00700
H942        H  0.27942978  0.59683999  0.73991858     0.04300
H943        H  0.24211544  0.59098417  0.74887945     0.06300
H944        H  0.25259900  0.62222459  0.72884636     0.07100
C945        C  0.33620806  0.72711289  0.40996778    -0.22500
C946        C  0.35201619  0.75040589  0.42043975     0.09500
C947        C  0.34098804  0.76685189  0.44321681     0.09900
C948        C  0.31523088  0.75844671  0.45631103    -0.17400
C949        C  0.30054049  0.73362360  0.44750986    -0.27800
C950        C  0.31067771  0.71831246  0.42330642     0.18200
C951        C  0.38097049  0.75587075  0.40852297     0.12200
C952        C  0.35708761  0.79242081  0.45459883    -0.12200
H953        H  0.30759046  0.77028171  0.47471766     0.12500
C954        C  0.29489719  0.69274738  0.41132927    -0.23000
H955        H  0.34459604  0.71503869  0.39202538     0.08100
C956        C  0.40439364  0.73819590  0.41575669     0.04500
C957        C  0.43127630  0.74344411  0.40334561    -0.20200
C958        C  0.43543354  0.76597156  0.38377186    -0.12500
C959        C  0.41184471  0.78409248  0.37700321     0.13200
C960        C  0.38499510  0.77875094  0.38958280    -0.23000
C961        C  0.40101802  0.71374891  0.43660486    -0.06000
H962        H  0.44905992  0.72947480  0.40861597     0.14700
C963        C  0.41412201  0.80828167  0.35565098    -0.16200
H964        H  0.36678340  0.79215224  0.38418783     0.09000
H965        H  0.29535027  0.67456751  0.42662353     0.06900
H966        H  0.30476868  0.68505154  0.39110946     0.08100
H967        H  0.27239443  0.69874658  0.40660898     0.07100
H968        H  0.35938946  0.80881392  0.43751567     0.02000
H969        H  0.37868309  0.78570724  0.46195738     0.02500
H970        H  0.34578097  0.80248437  0.47294352     0.06000
H971        H  0.42163493  0.70249561  0.44041013     0.05000
H972        H  0.38550272  0.69784351  0.42812729    -0.00800
H973        H  0.39312110  0.72203760  0.45743673     0.00700
H974        H  0.42079343  0.79972034  0.33451775     0.04300
H975        H  0.42982697  0.82447986  0.36320418     0.06300
H976        H  0.39333336  0.81946898  0.35261942     0.07100
C977        C  0.32936443  0.73061747  0.60582446    -0.22500
C978        C  0.35120365  0.74780982  0.59422968     0.09500
C979        C  0.34748705  0.76020609  0.56691464     0.09900
C980        C  0.32225534  0.75464834  0.55155954    -0.17400
C981        C  0.30094089  0.73655166  0.56262175    -0.27800
C982        C  0.30433216  0.72458663  0.59021309     0.18200
C983        C  0.37887940  0.75028081  0.60969022     0.12200
C984        C  0.37079319  0.77797212  0.55327630    -0.12200
H985        H  0.31990286  0.76304047  0.53005605     0.12500
C986        C  0.28260048  0.70442807  0.60316078    -0.23000
H987        H  0.33239704  0.72089644  0.62668977     0.08100
C988        C  0.38513646  0.77378179  0.62762931     0.04500
C989        C  0.41217890  0.77549512  0.64076846    -0.20200
C990        C  0.43269137  0.75375842  0.63712524    -0.12500
C991        C  0.42621176  0.73001360  0.61950720     0.13200
C992        C  0.39945116  0.72871068  0.60579971    -0.23000
C993        C  0.36304729  0.79658770  0.63344724    -0.06000
H994        H  0.41704292  0.79346959  0.65469468     0.14700
C995        C  0.44771167  0.70643334  0.61455478    -0.16200
H996        H  0.39446697  0.71072643  0.59192529     0.09000
H997        H  0.27493245  0.71328305  0.62384348     0.06900
H998        H  0.29270599  0.68324590  0.60711927     0.08100
H999        H  0.26364304  0.70107769  0.58926236     0.07100
H1000       H  0.39058018  0.76495246  0.55108265     0.02000
H1001       H  0.37546410  0.79703074  0.56665781     0.02500
H1002       H  0.36455517  0.78559553  0.53163703     0.06000
H1003       H  0.37131171  0.81327748  0.64825481     0.05000
H1004       H  0.34380183  0.78668546  0.64337983    -0.00800
H1005       H  0.35670274  0.80724468  0.61321155     0.00700
H1006       H  0.45233107  0.69518689  0.63495765     0.04300
H1007       H  0.46787361  0.71563090  0.60582375     0.06300
H1008       H  0.43962880  0.69025036  0.59910671     0.07100
C1009       C  0.22227063  0.38435428  0.62523136    -0.22500
C1010       C  0.24542511  0.40317181  0.62806906     0.09500
C1011       C  0.26310822  0.40907452  0.60430473     0.09900
C1012       C  0.25785167  0.39504258  0.57835346    -0.17400
C1013       C  0.23520212  0.37535167  0.57549326    -0.27800
C1014       C  0.21676779  0.37035633  0.59925519     0.18200
C1015       C  0.25123821  0.41607265  0.65631324     0.12200
C1016       C  0.28748800  0.43021013  0.60634278    -0.12200
H1017       H  0.27187783  0.39918388  0.56026991     0.12500
C1018       C  0.19197989  0.34956215  0.59810615    -0.23000
H1019       H  0.20879613  0.38018118  0.64370474     0.08100
C1020       C  0.23482774  0.43915537  0.66672259     0.04500
C1021       C  0.24282319  0.45228938  0.69242497    -0.20200
C1022       C  0.26735343  0.44341492  0.70745470    -0.12500
C1023       C  0.28294042  0.41927945  0.69770031     0.13200
C1024       C  0.27440553  0.40570129  0.67232963    -0.23000
C1025       C  0.20976592  0.45078426  0.65005870    -0.06000
H1026       H  0.23087743  0.47078363  0.69980564     0.14700
C1027       C  0.30850504  0.40771141  0.71374396    -0.16200
H1028       H  0.28649723  0.38759209  0.66429932     0.09000
H1029       H  0.17611774  0.35673004  0.58193012     0.06900
H1030       H  0.18058216  0.34805794  0.61894038     0.08100
H1031       H  0.19988303  0.32778210  0.59271189     0.07100
H1032       H  0.30338944  0.42275964  0.62233056     0.02000
H1033       H  0.27911339  0.45150060  0.61289297     0.02500
H1034       H  0.29875336  0.43279399  0.58554164     0.06000
H1035       H  0.19978928  0.46945564  0.66093096     0.05000
H1036       H  0.19314141  0.43392691  0.64766374    -0.00800
H1037       H  0.21704013  0.45783715  0.62854231     0.00700
H1038       H  0.30255878  0.40348397  0.73637709     0.04300
H1039       H  0.32656633  0.42317329  0.71291912     0.06300
H1040       H  0.31632210  0.38731069  0.70431369     0.07100
C1041       C  0.40268011  0.24923583  0.59604586    -0.22500
C1042       C  0.37797734  0.24354147  0.61221118     0.09500
C1043       C  0.38048704  0.23189233  0.63990558     0.09900
C1044       C  0.40785676  0.22697704  0.65119923    -0.17400
C1045       C  0.43261703  0.23393873  0.63555030    -0.27800
C1046       C  0.43007124  0.24456606  0.60736874     0.18200
C1047       C  0.34988543  0.25145612  0.60002053     0.12200
C1048       C  0.35436134  0.22561907  0.65779873    -0.12200
H1049       H  0.40995798  0.21904337  0.67294669     0.12500
C1050       C  0.45565321  0.25087885  0.58864870    -0.23000
H1051       H  0.40053666  0.25792845  0.57458853     0.08100
C1052       C  0.33986170  0.27985567  0.60153958     0.04500
C1053       C  0.31517700  0.28751049  0.58635321    -0.20200
C1054       C  0.30038859  0.26753055  0.56920736    -0.12500
C1055       C  0.30939871  0.23839438  0.56961382     0.13200
C1056       C  0.33413930  0.23084151  0.58501768    -0.23000
C1057       C  0.35572180  0.30227042  0.61855420    -0.06000
H1058       H  0.30821083  0.30964197  0.58693323     0.14700
C1059       C  0.29394950  0.21516386  0.55335356    -0.16200
H1060       H  0.34191895  0.20897757  0.58449276     0.09000
H1061       H  0.45611272  0.27406636  0.58328197     0.06900
H1062       H  0.45394454  0.23834025  0.56852412     0.08100
H1063       H  0.47630300  0.24507483  0.59880118     0.07100
H1064       H  0.34063918  0.20967331  0.64671473     0.02000
H1065       H  0.34194738  0.24562797  0.66119568     0.02500
H1066       H  0.36019041  0.21680215  0.67910179     0.06000
H1067       H  0.34487093  0.32343505  0.61763043     0.05000
H1068       H  0.37775992  0.30493581  0.60996948    -0.00800
H1069       H  0.35697103  0.29559632  0.64132398     0.00700
H1070       H  0.29484815  0.21957234  0.53006165     0.04300
H1071       H  0.27129836  0.21394594  0.56057245     0.06300
H1072       H  0.30377024  0.19377110  0.55690300     0.07100
C1073       C  0.40069304  0.66445361  0.28813781    -0.22500
C1074       C  0.40759180  0.65208573  0.26171912     0.09500
C1075       C  0.42718419  0.66583074  0.24335977     0.09900
C1076       C  0.44122311  0.69060837  0.25278763    -0.17400
C1077       C  0.43651553  0.70164554  0.28041448    -0.27800
C1078       C  0.41495886  0.68910087  0.29787149     0.18200
C1079       C  0.39634823  0.62328602  0.25494252     0.12200
C1080       C  0.43422620  0.65354284  0.21438378    -0.12200
H1081       H  0.45746442  0.70018703  0.23914074     0.12500
C1082       C  0.40703879  0.70114170  0.32679831    -0.23000
H1083       H  0.38510602  0.65385262  0.30182869     0.08100
C1084       C  0.41044382  0.59845230  0.26487110     0.04500
C1085       C  0.39900601  0.57143173  0.25844894    -0.20200
C1086       C  0.37390563  0.56871619  0.24220331    -0.12500
C1087       C  0.35984812  0.59373838  0.23217125     0.13200
C1088       C  0.37143073  0.62075827  0.23854988    -0.23000
C1089       C  0.43739321  0.60055285  0.28249966    -0.06000
H1090       H  0.40940700  0.55230494  0.26659654     0.14700
C1091       C  0.33180592  0.59226707  0.21622030    -0.16200
H1092       H  0.36076135  0.64005408  0.23120270     0.09000
H1093       H  0.42480618  0.69805302  0.34223183     0.06900
H1094       H  0.38789704  0.69024819  0.33590386     0.08100
H1095       H  0.40199667  0.72432405  0.32482879     0.07100
H1096       H  0.41447593  0.65243501  0.20120509     0.02000
H1097       H  0.44322946  0.63165422  0.21682701     0.02500
H1098       H  0.45019778  0.66687484  0.20276920     0.06000
H1099       H  0.44573033  0.57906187  0.28844260     0.05000
H1100       H  0.43296621  0.61255960  0.30252441    -0.00800
H1101       H  0.45429197  0.61190960  0.27015402     0.00700
H1102       H  0.31556515  0.58083912  0.22938109     0.04300
H1103       H  0.33486356  0.58089673  0.19561075     0.06300
H1104       H  0.32325014  0.61393126  0.21129838     0.07100
C1105       C  0.23218391  0.63591897  0.38545747    -0.22500
C1106       C  0.24642352  0.60965805  0.38301652     0.09500
C1107       C  0.25342787  0.59394662  0.40789008     0.09900
C1108       C  0.24723508  0.60557728  0.43485732    -0.17400
C1109       C  0.23343508  0.63212232  0.43742288    -0.27800
C1110       C  0.22536722  0.64730274  0.41240233     0.18200
C1111       C  0.25474548  0.59912590  0.35435739     0.12200
C1112       C  0.26737109  0.56488002  0.40592862    -0.12200
H1113       H  0.25342615  0.59407835  0.45402393     0.12500
C1114       C  0.21074099  0.67607359  0.41392834    -0.23000
H1115       H  0.22684608  0.64772328  0.36621011     0.08100
C1116       C  0.23516662  0.58464598  0.33662433     0.04500
C1117       C  0.24530530  0.57056148  0.31214396    -0.20200
C1118       C  0.27475863  0.56988189  0.30547642    -0.12500
C1119       C  0.29387076  0.58715356  0.32179260     0.13200
C1120       C  0.28344525  0.60159311  0.34598775    -0.23000
C1121       C  0.20387737  0.58279172  0.34436281    -0.06000
H1122       H  0.23030787  0.55823450  0.29943863     0.14700
C1123       C  0.32534114  0.59008788  0.31473659    -0.16200
H1124       H  0.29807559  0.61355404  0.35945717     0.09000
H1125       H  0.20741269  0.68551924  0.39236542     0.06900
H1126       H  0.22387995  0.69130459  0.42661369     0.08100
H1127       H  0.18940829  0.67360321  0.42408012     0.07100
H1128       H  0.28848923  0.56666492  0.39512562     0.02000
H1129       H  0.25338506  0.55017208  0.39353095     0.02500
H1130       H  0.27087195  0.55529167  0.42739743     0.06000
H1131       H  0.19154060  0.57023592  0.32837415     0.05000
H1132       H  0.19457465  0.60466750  0.34535594    -0.00800
H1133       H  0.20139335  0.57221722  0.36551171     0.00700
H1134       H  0.33591732  0.60660687  0.32820353     0.04300
H1135       H  0.32801597  0.59664174  0.29204068     0.06300
H1136       H  0.33668757  0.56958344  0.31875948     0.07100
C1137       C  0.22154362  0.39660180  0.39920500    -0.22500
C1138       C  0.24880843  0.40535721  0.39039946     0.09500
C1139       C  0.27279898  0.39999784  0.40785257     0.09900
C1140       C  0.26905575  0.38505629  0.43355978    -0.17400
C1141       C  0.24179084  0.37575752  0.44247004    -0.27800
C1142       C  0.21760988  0.38180908  0.42504949     0.18200
C1143       C  0.25162771  0.42175338  0.36362337     0.12200
C1144       C  0.30227368  0.41031006  0.39946832    -0.12200
H1145       H  0.28758089  0.38063085  0.44679481     0.12500
C1146       C  0.18778572  0.37195214  0.43265350    -0.23000
H1147       H  0.20331375  0.40126935  0.38563780     0.08100
C1148       C  0.25884393  0.40848447  0.33745936     0.04500
C1149       C  0.26429131  0.42568380  0.31338486    -0.20200
C1150       C  0.26272396  0.45562991  0.31526856    -0.12500
C1151       C  0.25375764  0.46863029  0.34112223     0.13200
C1152       C  0.24838030  0.45147149  0.36499623    -0.23000
C1153       C  0.26152135  0.37637874  0.33527803    -0.06000
H1154       H  0.27140327  0.41585741  0.29352860     0.14700
C1155       C  0.25010692  0.50055287  0.34438668    -0.16200
H1156       H  0.24238111  0.46144599  0.38516959     0.09000
H1157       H  0.17186527  0.37833877  0.41619692     0.06900
H1158       H  0.18089168  0.38162323  0.45322118     0.08100
H1159       H  0.18732743  0.34825770  0.43409320     0.07100
H1160       H  0.30221020  0.43402119  0.39733050     0.02000
H1161       H  0.30869847  0.40065804  0.37874328     0.02500
H1162       H  0.31862992  0.40440796  0.41567739     0.06000
H1163       H  0.26739898  0.36954360  0.31327057     0.05000
H1164       H  0.24076300  0.36620780  0.34096808    -0.00800
H1165       H  0.27831455  0.36854013  0.35013644     0.00700
H1166       H  0.22810912  0.50532752  0.35214110     0.04300
H1167       H  0.25301033  0.51213261  0.32398990     0.06300
H1168       H  0.26586911  0.50885333  0.36011976     0.07100
C1169       C  0.59780171  0.25753630  0.42444734    -0.22500
C1170       C  0.62244282  0.24774443  0.41027448     0.09500
C1171       C  0.61970338  0.23205710  0.38467773     0.09900
C1172       C  0.59228574  0.22675775  0.37360731    -0.17400
C1173       C  0.56757408  0.23720411  0.38730573    -0.27800
C1174       C  0.57033629  0.25246204  0.41332893     0.18200
C1175       C  0.65086402  0.25448772  0.42263165     0.12200
C1176       C  0.64572346  0.22188818  0.36851130    -0.12200
H1177       H  0.59020683  0.21551954  0.35342165     0.12500
C1178       C  0.54497475  0.26318222  0.43024031    -0.23000
H1179       H  0.60005827  0.26932271  0.44429619     0.08100
C1180       C  0.66263671  0.28222137  0.42063463     0.04500
C1181       C  0.68807731  0.28844831  0.43524817    -0.20200
C1182       C  0.70211048  0.26765406  0.45205666    -0.12500
C1183       C  0.69144083  0.23908962  0.45190553     0.13200
C1184       C  0.66576852  0.23305747  0.43739028    -0.23000
C1185       C  0.64815725  0.30535321  0.40336393    -0.06000
H1186       H  0.69638487  0.31016433  0.43439016     0.14700
C1187       C  0.70633890  0.21486245  0.46721751    -0.16200
H1188       H  0.65674952  0.21158953  0.43818953     0.09000
H1189       H  0.54543219  0.28697294  0.43103461     0.06900
H1190       H  0.54614470  0.25472125  0.45242225     0.08100
H1191       H  0.52411389  0.25621488  0.42134429     0.07100
H1192       H  0.65824151  0.20681668  0.38195670     0.02000
H1193       H  0.65940468  0.24053049  0.36276903     0.02500
H1194       H  0.63976939  0.21060445  0.34845673     0.06000
H1195       H  0.66057459  0.32569265  0.40358619     0.05000
H1196       H  0.62655743  0.30984262  0.41224272    -0.00800
H1197       H  0.64602388  0.29827683  0.38078563     0.00700
H1198       H  0.70680771  0.21887768  0.49054867     0.04300
H1199       H  0.72854675  0.21261586  0.45895656     0.06300
H1200       H  0.69522594  0.19405145  0.46387189     0.07100
C1201       C  0.39879298  0.26688593  0.41595290    -0.22500
C1202       C  0.37802760  0.24617915  0.40940932     0.09500
C1203       C  0.38486040  0.22336464  0.39084710     0.09900
C1204       C  0.41273102  0.22147156  0.37972629    -0.17400
C1205       C  0.43343989  0.24240740  0.38598597    -0.27800
C1206       C  0.42645552  0.26536558  0.40442559     0.18200
C1207       C  0.34946846  0.24910202  0.42272381     0.12200
C1208       C  0.36250169  0.20190952  0.38172112    -0.12200
H1209       H  0.41800286  0.20432939  0.36493264     0.12500
C1210       C  0.44766437  0.28827843  0.41280530    -0.23000
H1211       H  0.39334585  0.28436652  0.43027245     0.08100
C1212       C  0.34269897  0.23461364  0.44837797     0.04500
C1213       C  0.31708844  0.24119942  0.46260062    -0.20200
C1214       C  0.29898225  0.26290169  0.45253712    -0.12500
C1215       C  0.30555322  0.27720133  0.42669241     0.13200
C1216       C  0.33055588  0.26973242  0.41179177    -0.23000
C1217       C  0.36353927  0.21406457  0.46204367    -0.06000
H1218       H  0.31240029  0.23112111  0.48295710     0.14700
C1219       C  0.28742391  0.30132304  0.41512916    -0.16200
H1220       H  0.33616744  0.28120150  0.39237670     0.09000
H1221       H  0.44937942  0.28911519  0.43648642     0.06900
H1222       H  0.44011115  0.30942153  0.40490527     0.08100
H1223       H  0.46949958  0.28440175  0.40432597     0.07100
H1224       H  0.34465771  0.21321059  0.37081930     0.02000
H1225       H  0.35386606  0.19027369  0.40052802     0.02500
H1226       H  0.37142252  0.18581543  0.36662377     0.06000
H1227       H  0.35516226  0.20537389  0.48255170     0.05000
H1228       H  0.38402145  0.22530648  0.46659577    -0.00800
H1229       H  0.36783166  0.19572748  0.44761993     0.00700
H1230       H  0.30021928  0.32141846  0.41460099     0.04300
H1231       H  0.26790940  0.30522767  0.42812066     0.06300
H1232       H  0.28043558  0.29608674  0.39304609     0.07100
C1233       C  0.57492795  0.33702739  0.24438443    -0.22500
C1234       C  0.59137321  0.35195278  0.26442432     0.09500
C1235       C  0.59450978  0.34106536  0.29234473     0.09900
C1236       C  0.57950226  0.31626514  0.30017033    -0.17400
C1237       C  0.56125666  0.30213442  0.28076597    -0.27800
C1238       C  0.55992440  0.31209694  0.25200872     0.18200
C1239       C  0.60384939  0.37980772  0.25615424     0.12200
C1240       C  0.61338488  0.35585903  0.31394511    -0.12200
H1241       H  0.58125857  0.30853198  0.32200246     0.12500
C1242       C  0.54230903  0.29745533  0.22923079    -0.23000
H1243       H  0.57312393  0.34553614  0.22286149     0.08100
C1244       C  0.62884581  0.38160826  0.23934075     0.04500
C1245       C  0.64036549  0.40865083  0.23307124    -0.20200
C1246       C  0.62752414  0.43379623  0.24354302    -0.12500
C1247       C  0.60165993  0.43195389  0.25928479     0.13200
C1248       C  0.59021657  0.40488080  0.26552749    -0.23000
C1249       C  0.64394424  0.35501883  0.22903968    -0.06000
H1250       H  0.66027928  0.41006664  0.22135017     0.14700
C1251       C  0.58533399  0.45789907  0.26951200    -0.16200
H1252       H  0.57076055  0.40327624  0.27787618     0.09000
H1253       H  0.54457660  0.30812637  0.20808978     0.06900
H1254       H  0.51924451  0.29798760  0.23494571     0.08100
H1255       H  0.54953364  0.27492462  0.22669879     0.07100
H1256       H  0.60538525  0.37787557  0.31805920     0.02000
H1257       H  0.63565702  0.35706907  0.30563289     0.02500
H1258       H  0.61382533  0.34418685  0.33467282     0.06000
H1259       H  0.66360460  0.36028214  0.21670090     0.05000
H1260       H  0.62948790  0.34247707  0.21494161    -0.00800
H1261       H  0.65022168  0.34161483  0.24765259     0.00700
H1262       H  0.56287750  0.45665239  0.26179465     0.04300
H1263       H  0.59427954  0.47838140  0.26140915     0.06300
H1264       H  0.58522187  0.45838831  0.29325871     0.07100
C1265       C  0.40033782  0.39759496  0.28143384    -0.22500
C1266       C  0.40050697  0.37920926  0.25775834     0.09500
C1267       C  0.38702788  0.38759965  0.23215206     0.09900
C1268       C  0.37381867  0.41457397  0.23070407    -0.17400
C1269       C  0.37339645  0.43302266  0.25448601    -0.27800
C1270       C  0.38680243  0.42437528  0.28024201     0.18200
C1271       C  0.41642279  0.35198192  0.26021450     0.12200
C1272       C  0.38646025  0.36802351  0.20655342    -0.12200
H1273       H  0.36318466  0.42101878  0.21111241     0.12500
C1274       C  0.38768621  0.44346226  0.30626517    -0.23000
H1275       H  0.41105317  0.39092824  0.30091381     0.08100
C1276       C  0.44620832  0.35125516  0.25530023     0.04500
C1277       C  0.46150772  0.32647285  0.26227140    -0.20200
C1278       C  0.44779231  0.30251629  0.27419842    -0.12500
C1279       C  0.41777881  0.30278777  0.27819509     0.13200
C1280       C  0.40235339  0.32760156  0.27090652    -0.23000
C1281       C  0.46203481  0.37709935  0.24400593    -0.06000
H1282       H  0.48464997  0.32639058  0.25998026     0.14700
C1283       C  0.40175744  0.27817243  0.29171531    -0.16200
H1284       H  0.37947522  0.32846361  0.27492286     0.09000
H1285       H  0.40090096  0.43402163  0.32363022     0.06900
H1286       H  0.36575474  0.44653311  0.31492934     0.08100
H1287       H  0.39711762  0.46456619  0.30051369     0.07100
H1288       H  0.37547948  0.34767571  0.21226688     0.02000
H1289       H  0.40867233  0.36320916  0.19953674     0.02500
H1290       H  0.37485307  0.37784126  0.18827070     0.06000
H1291       H  0.48532852  0.37282280  0.24151192     0.05000
H1292       H  0.45948060  0.39537342  0.25899831    -0.00800
H1293       H  0.45336099  0.38320954  0.22276683     0.00700
H1294       H  0.39131963  0.28554567  0.31177334     0.04300
H1295       H  0.41579784  0.25978274  0.29707354     0.06300
H1296       H  0.38498535  0.27042898  0.27676089     0.07100
C1297       C  0.61786740  0.92697281  0.75833902    -0.22500
C1298       C  0.62855994  0.90047970  0.74919605     0.09500
C1299       C  0.65847681  0.89654028  0.74688859     0.09900
C1300       C  0.67708797  0.91864056  0.75567032    -0.17400
C1301       C  0.66637073  0.94467040  0.76639691    -0.27800
C1302       C  0.63631407  0.94920149  0.76677473     0.18200
C1303       C  0.60772418  0.87743893  0.74203368     0.12200
C1304       C  0.67064684  0.86910817  0.73504912    -0.12200
H1305       H  0.70008639  0.91530658  0.75483653     0.12500
C1306       C  0.62348536  0.97766650  0.77523926    -0.23000
H1307       H  0.59482666  0.93013227  0.75916147     0.08100
C1308       C  0.59848032  0.85731774  0.76263859     0.04500
C1309       C  0.57689747  0.83744770  0.75552757    -0.20200
C1310       C  0.56386638  0.83742455  0.72835354    -0.12500
C1311       C  0.57382305  0.85747018  0.70750652     0.13200
C1312       C  0.59551362  0.87711072  0.71475113    -0.23000
C1313       C  0.61097447  0.85729400  0.79235201    -0.06000
H1314       H  0.56973227  0.82225503  0.77159632     0.14700
C1315       C  0.56220813  0.85848664  0.67740070    -0.16200
H1316       H  0.60277505  0.89272564  0.69913110     0.09000
H1317       H  0.59994357  0.97810457  0.77174700     0.06900
H1318       H  0.63314502  0.99509625  0.76217880     0.08100
H1319       H  0.62724653  0.98193875  0.79826207     0.07100
H1320       H  0.66278863  0.86584931  0.71286705     0.02000
H1321       H  0.66386426  0.85066571  0.74844109     0.02500
H1322       H  0.69444542  0.86956833  0.73449153     0.06000
H1323       H  0.60132521  0.84028845  0.80594909     0.05000
H1324       H  0.60697749  0.87830947  0.80275020    -0.00800
H1325       H  0.63442503  0.85349875  0.79130931     0.00700
H1326       H  0.57370490  0.87444093  0.66395741     0.04300
H1327       H  0.53928424  0.86479744  0.67767269     0.06300
H1328       H  0.56477542  0.83725707  0.66702805     0.07100
C1329       C  0.65902246  0.11269704  0.75440530    -0.22500
C1330       C  0.63014952  0.11052264  0.76248224     0.09500
C1331       C  0.62068351  0.08642524  0.77808757     0.09900
C1332       C  0.64043079  0.06513206  0.78557886    -0.17400
C1333       C  0.66930275  0.06702347  0.77732249    -0.27800
C1334       C  0.67886991  0.09131032  0.76181694     0.18200
C1335       C  0.60955299  0.13239380  0.75242772     0.12200
C1336       C  0.58960800  0.08283816  0.78620976    -0.12200
H1337       H  0.63316964  0.04651927  0.79750300     0.12500
C1338       C  0.70975788  0.09595239  0.75357211    -0.23000
H1339       H  0.66609604  0.13121910  0.74224943     0.08100
C1340       C  0.60120504  0.15582285  0.76955390     0.04500
C1341       C  0.57959056  0.17436914  0.75972223    -0.20200
C1342       C  0.56642521  0.17017321  0.73296888    -0.12500
C1343       C  0.57550738  0.14679487  0.71561169     0.13200
C1344       C  0.59693565  0.12835279  0.72566814    -0.23000
C1345       C  0.61516016  0.16119711  0.79809496    -0.06000
H1346       H  0.57299763  0.19224492  0.77297729     0.14700
C1347       C  0.56216868  0.14009475  0.68696951    -0.16200
H1348       H  0.60355150  0.11015454  0.71282608     0.09000
H1349       H  0.71731731  0.11667601  0.76250306     0.06900
H1350       H  0.71167449  0.09668079  0.72989987     0.08100
H1351       H  0.72422178  0.07909665  0.76175572     0.07100
H1352       H  0.57618603  0.08235569  0.76661839     0.02000
H1353       H  0.58264512  0.10093224  0.79994239     0.02500
H1354       H  0.58586038  0.06259490  0.79818594     0.06000
H1355       H  0.60626537  0.18054043  0.80872253     0.05000
H1356       H  0.63854185  0.16446967  0.79505462    -0.00800
H1357       H  0.61172073  0.14257940  0.81248847     0.00700
H1358       H  0.56675204  0.15758090  0.67153941     0.04300
H1359       H  0.53866679  0.13723260  0.68943005     0.06300
H1360       H  0.57087626  0.12004125  0.67755892     0.07100
C1361       C  0.75587542  0.39333481  0.16385109    -0.22500
C1362       C  0.74961437  0.39718536  0.13479310     0.09500
C1363       C  0.73562458  0.42237352  0.12577211     0.09900
C1364       C  0.72782292  0.44307020  0.14609163    -0.17400
C1365       C  0.73389228  0.43942485  0.17535348    -0.27800
C1366       C  0.74827969  0.41412825  0.18431944     0.18200
C1367       C  0.75761921  0.37456589  0.11396794     0.12200
C1368       C  0.72906788  0.42744519  0.09461148    -0.12200
H1369       H  0.71703904  0.46237355  0.13896940     0.12500
C1370       C  0.75501142  0.40835299  0.21534696    -0.23000
H1371       H  0.76667159  0.37386083  0.17050932     0.08100
C1372       C  0.78495640  0.37394130  0.10118762     0.04500
C1373       C  0.79081581  0.35349043  0.07996628    -0.20200
C1374       C  0.76998048  0.33348387  0.07109134    -0.12500
C1375       C  0.74268861  0.33380046  0.08456074     0.13200
C1376       C  0.73693180  0.35438761  0.10579448    -0.23000
C1377       C  0.80777991  0.39516234  0.10966213    -0.06000
H1378       H  0.81187159  0.35325978  0.07017306     0.14700
C1379       C  0.71915464  0.31330119  0.07622939    -0.16200
H1380       H  0.71596570  0.35515029  0.11577359     0.09000
H1381       H  0.77044583  0.42454263  0.22343688     0.06900
H1382       H  0.76491058  0.38691917  0.21841219     0.08100
H1383       H  0.73501723  0.40903785  0.22825406     0.07100
H1384       H  0.71476814  0.41024766  0.08650976     0.02000
H1385       H  0.74927642  0.42743116  0.08203583     0.02500
H1386       H  0.71823220  0.44835096  0.09113794     0.06000
H1387       H  0.82795304  0.39183774  0.09746585     0.05000
H1388       H  0.81265747  0.39281269  0.13278865    -0.00800
H1389       H  0.80019001  0.41732572  0.10548415     0.00700
H1390       H  0.72568822  0.29095807  0.08113714     0.04300
H1391       H  0.71445706  0.31546005  0.05304084     0.06300
H1392       H  0.69900138  0.31759439  0.08814968     0.07100
C1393       C  0.72504420  0.38884235  0.86387796    -0.22500
C1394       C  0.74593228  0.39524702  0.88439683     0.09500
C1395       C  0.75971209  0.42218681  0.88384006     0.09900
C1396       C  0.75171271  0.44248950  0.86310723    -0.17400
C1397       C  0.73013304  0.43648007  0.84304683    -0.27800
C1398       C  0.71695746  0.40910427  0.84316499     0.18200
C1399       C  0.75339775  0.37311181  0.90590701     0.12200
C1400       C  0.78262017  0.42953679  0.90529800    -0.12200
H1401       H  0.76180736  0.46343250  0.86304145     0.12500
C1402       C  0.69516096  0.40073625  0.82092124    -0.23000
H1403       H  0.71499823  0.36788607  0.86416447     0.08100
C1404       C  0.73800194  0.37026843  0.93175932     0.04500
C1405       C  0.74602469  0.34896211  0.95147611    -0.20200
C1406       C  0.76911897  0.33044815  0.94588524    -0.12500
C1407       C  0.78371364  0.33263678  0.91929654     0.13200
C1408       C  0.77588813  0.35422090  0.89990127    -0.23000
C1409       C  0.71346965  0.39005402  0.93869360    -0.06000
H1410       H  0.73485696  0.34740988  0.97174446     0.14700
C1411       C  0.80697995  0.31219481  0.91004621    -0.16200
H1412       H  0.78722345  0.35614427  0.87973492     0.09000
H1413       H  0.67561548  0.41408001  0.82303761     0.06900
H1414       H  0.68852879  0.37795899  0.82310596     0.08100
H1415       H  0.70457398  0.40359026  0.79927913     0.07100
H1416       H  0.80072662  0.41424222  0.90327423     0.02000
H1417       H  0.77370798  0.42822906  0.92729614     0.02500
H1418       H  0.79110338  0.45155406  0.90198583     0.06000
H1419       H  0.70382730  0.38506307  0.95986051     0.05000
H1420       H  0.69650828  0.38791758  0.92219263    -0.00800
H1421       H  0.72116378  0.41258330  0.93912123     0.00700
H1422       H  0.80131601  0.30283298  0.88895888     0.04300
H1423       H  0.81003246  0.29393462  0.92486450     0.06300
H1424       H  0.82750578  0.32404226  0.90782087     0.07100
C1425       C  0.72132820  0.11448993  0.89034815    -0.22500
C1426       C  0.74378413  0.11790865  0.90984237     0.09500
C1427       C  0.76267217  0.09488081  0.91509364     0.09900
C1428       C  0.75898072  0.06899258  0.90022449    -0.17400
C1429       C  0.73663860  0.06548480  0.88045402    -0.27800
C1430       C  0.71765869  0.08866130  0.87534513     0.18200
C1431       C  0.74740006  0.14582363  0.92451157     0.12200
C1432       C  0.78699370  0.09785734  0.93604951    -0.12200
H1433       H  0.77384796  0.05148353  0.90374750     0.12500
C1434       C  0.69476147  0.08713656  0.85277763    -0.23000
H1435       H  0.70708718  0.13239612  0.88635703     0.08100
C1436       C  0.76312835  0.16853338  0.91204888     0.04500
C1437       C  0.76895705  0.19322272  0.92833301    -0.20200
C1438       C  0.75896019  0.19570866  0.95652711    -0.12500
C1439       C  0.74164382  0.17366212  0.96817319     0.13200
C1440       C  0.73625879  0.14893146  0.95210529    -0.23000
C1441       C  0.77461734  0.16616410  0.88202714    -0.06000
H1442       H  0.78250900  0.20998988  0.91956051     0.14700
C1443       C  0.72922494  0.17521696  0.99780391    -0.16200
H1444       H  0.72387614  0.13155478  0.96147797     0.09000
H1445       H  0.70498844  0.08355918  0.83164459     0.06900
H1446       H  0.68228153  0.10735811  0.85136264     0.08100
H1447       H  0.67951144  0.06956884  0.85776593     0.07100
H1448       H  0.77837443  0.10254018  0.95769928     0.02000
H1449       H  0.80134063  0.11562860  0.92930049     0.02500
H1450       H  0.79995643  0.07794119  0.93739753     0.06000
H1451       H  0.78666880  0.18569761  0.87562110     0.05000
H1452       H  0.75657944  0.16325334  0.86682473    -0.00800
H1453       H  0.78927438  0.14749596  0.88042547     0.00700
H1454       H  0.70569282  0.17177503  0.99687808     0.04300
H1455       H  0.73281938  0.19640229  0.00765302     0.06300
H1456       H  0.73897321  0.15837255  0.01149406     0.07100
C1457       C  0.84935189  0.75638104  0.61315889    -0.22500
C1458       C  0.87844334  0.74937079  0.61022360     0.09500
C1459       C  0.88779828  0.73499780  0.58540494     0.09900
C1460       C  0.86783928  0.72763870  0.56421740    -0.17400
C1461       C  0.83852148  0.73428098  0.56702035    -0.27800
C1462       C  0.82921429  0.74904430  0.59189972     0.18200
C1463       C  0.89909065  0.75773332  0.63298214     0.12200
C1464       C  0.91892974  0.72742763  0.58128593    -0.12200
H1465       H  0.87529163  0.71648808  0.54526562     0.12500
C1466       C  0.79813323  0.75639680  0.59671023    -0.23000
H1467       H  0.84239621  0.76757248  0.63227640     0.08100
C1468       C  0.91260686  0.78472493  0.63264245     0.04500
C1469       C  0.93362178  0.79101499  0.65317340    -0.20200
C1470       C  0.94166254  0.77101434  0.67437114    -0.12500
C1471       C  0.92733127  0.74410303  0.67508891     0.13200
C1472       C  0.90636919  0.73785045  0.65428178    -0.23000
C1473       C  0.90505236  0.80679447  0.61032952    -0.06000
H1474       H  0.94390198  0.81185808  0.65248693     0.14700
C1475       C  0.93415752  0.72157923  0.69717678    -0.16200
H1476       H  0.89580489  0.71711966  0.65433201     0.09000
H1477       H  0.79070785  0.77152544  0.57994656     0.06900
H1478       H  0.79468356  0.76684846  0.61778150     0.08100
H1479       H  0.78492399  0.73658087  0.59615219     0.07100
H1480       H  0.92607420  0.71302557  0.59879334     0.02000
H1481       H  0.93216104  0.74722051  0.58149559     0.02500
H1482       H  0.92268045  0.71628740  0.56061717     0.06000
H1483       H  0.91765577  0.82682827  0.61299872     0.05000
H1484       H  0.88196626  0.81229489  0.61201864    -0.00800
H1485       H  0.90947067  0.79815657  0.58864100     0.00700
H1486       H  0.92915605  0.72981622  0.71889787     0.04300
H1487       H  0.95715020  0.71562555  0.69581056     0.06300
H1488       H  0.92132993  0.70176705  0.69395481     0.07100
C1489       C  0.12277478  0.72195407  0.60028800    -0.22500
C1490       C  0.12940778  0.74701485  0.61530087     0.09500
C1491       C  0.15493145  0.76198510  0.60905733     0.09900
C1492       C  0.17307940  0.75178197  0.58731906    -0.17400
C1493       C  0.16646890  0.72667577  0.57206412    -0.27800
C1494       C  0.14094120  0.71148237  0.57877969     0.18200
C1495       C  0.10843516  0.75768446  0.63653475     0.12200
C1496       C  0.16292905  0.78866223  0.62533836    -0.12200
H1497       H  0.19261335  0.76336235  0.58232440     0.12500
C1498       C  0.13195591  0.68489152  0.56274076    -0.23000
H1499       H  0.10298751  0.71077160  0.60521483     0.08100
C1500       C  0.08602063  0.77615765  0.62828630     0.04500
C1501       C  0.06552732  0.78441001  0.64861133    -0.20200
C1502       C  0.06667826  0.77429489  0.67689492    -0.12500
C1503       C  0.08959321  0.75631774  0.68534656     0.13200
C1504       C  0.11007520  0.74801988  0.66490075    -0.23000
C1505       C  0.08344447  0.78671879  0.59791224    -0.06000
H1506       H  0.04809173  0.79832999  0.64223573     0.14700
C1507       C  0.09376244  0.74630581  0.71571490    -0.16200
H1508       H  0.12746743  0.73396701  0.67111007     0.09000
H1509       H  0.11053109  0.67712751  0.56968647     0.06900
H1510       H  0.14744467  0.66729859  0.56671761     0.08100
H1511       H  0.13080450  0.68954601  0.53946334     0.07100
H1512       H  0.16495395  0.78354084  0.64845135     0.02000
H1513       H  0.14616698  0.80528091  0.62250255     0.02500
H1514       H  0.18366189  0.79770034  0.61785651     0.06000
H1515       H  0.06459563  0.80096527  0.59509828     0.05000
H1516       H  0.08100237  0.76821161  0.58318660    -0.00800
H1517       H  0.10292553  0.79899245  0.59187916     0.00700
H1518       H  0.09249848  0.72255488  0.71657435     0.04300
H1519       H  0.07777498  0.75522563  0.73072757     0.06300
H1520       H  0.11521472  0.75318840  0.72337340     0.07100
C1521       C  0.84411464  0.93495650  0.74100838    -0.22500
C1522       C  0.85260706  0.91166267  0.75776211     0.09500
C1523       C  0.83541394  0.90271822  0.78096440     0.09900
C1524       C  0.81080394  0.91851751  0.78794309    -0.17400
C1525       C  0.80302110  0.94297163  0.77215557    -0.27800
C1526       C  0.81953052  0.95077624  0.74778133     0.18200
C1527       C  0.88112450  0.89904258  0.75244268     0.12200
C1528       C  0.84329994  0.87680398  0.79856074    -0.12200
H1529       H  0.79814380  0.91232944  0.80639038     0.12500
C1530       C  0.81274221  0.97674652  0.72975876    -0.23000
H1531       H  0.85761903  0.94158942  0.72330934     0.08100
C1532       C  0.88649695  0.88090708  0.72898984     0.04500
C1533       C  0.91394027  0.86919990  0.72552272    -0.20200
C1534       C  0.93615693  0.87516585  0.74503049    -0.12500
C1535       C  0.93091423  0.89468776  0.76776319     0.13200
C1536       C  0.90344434  0.90635383  0.77102590    -0.23000
C1537       C  0.86312232  0.87331995  0.70811213    -0.06000
H1538       H  0.91768393  0.85447023  0.70798578     0.14700
C1539       C  0.95383946  0.90364474  0.78868482    -0.16200
H1540       H  0.89912693  0.92102809  0.78848872     0.09000
H1541       H  0.82857207  0.97985138  0.71225602     0.06900
H1542       H  0.81311224  0.99632882  0.74323234     0.08100
H1543       H  0.79136835  0.97419679  0.71967022     0.07100
H1544       H  0.86433699  0.88017958  0.80908530     0.02000
H1545       H  0.84460140  0.85765795  0.78450441     0.02500
H1546       H  0.82718326  0.87242432  0.81552568     0.06000
H1547       H  0.87084559  0.85834651  0.69131686     0.05000
H1548       H  0.85523801  0.89299732  0.69733550    -0.00800
H1549       H  0.84508487  0.86289504  0.71963384     0.00700
H1550       H  0.94623020  0.92079623  0.80331543     0.04300
H1551       H  0.97273876  0.91209324  0.77691161     0.06300
H1552       H  0.96019227  0.88520144  0.80226458     0.07100
C1553       C  0.40813415  0.12871540  0.72668302    -0.22500
C1554       C  0.39810529  0.12912299  0.75483246     0.09500
C1555       C  0.40913176  0.14948302  0.77423668     0.09900
C1556       C  0.43042338  0.16882056  0.76501967    -0.17400
C1557       C  0.44126662  0.16797021  0.73690722    -0.27800
C1558       C  0.42941471  0.14778891  0.71732938     0.18200
C1559       C  0.37751901  0.10654217  0.76369138     0.12200
C1560       C  0.39842714  0.15069828  0.80461966    -0.12200
H1561       H  0.43907916  0.18423121  0.78005863     0.12500
C1562       C  0.43833439  0.14622432  0.68632437    -0.23000
H1563       H  0.39946927  0.11292893  0.71201576     0.08100
C1564       C  0.34831629  0.10749456  0.75598751     0.04500
C1565       C  0.33026034  0.08447993  0.76335339    -0.20200
C1566       C  0.34076849  0.06036999  0.77809747    -0.12500
C1567       C  0.37036627  0.05941660  0.78535637     0.13200
C1568       C  0.38818251  0.08255401  0.77809561    -0.23000
C1569       C  0.33623585  0.13288103  0.74016423    -0.06000
H1570       H  0.30773295  0.08549896  0.75779404     0.14700
C1571       C  0.38387857  0.03384181  0.79978159    -0.16200
H1572       H  0.41082133  0.08180889  0.78329997     0.09000
H1573       H  0.42548127  0.13028556  0.67420063     0.06900
H1574       H  0.46107861  0.13954893  0.68453135     0.08100
H1575       H  0.43502740  0.16734124  0.67596477     0.07100
H1576       H  0.40295275  0.13010065  0.81562740     0.02000
H1577       H  0.37495030  0.15458540  0.80471834     0.02500
H1578       H  0.40892542  0.16815768  0.81691134     0.06000
H1579       H  0.31289117  0.13045986  0.73619741     0.05000
H1580       H  0.34709732  0.13523446  0.71914722    -0.00800
H1581       H  0.33960816  0.15266458  0.75292406     0.00700
H1582       H  0.40750009  0.03615517  0.80164354     0.04300
H1583       H  0.37956755  0.01422966  0.78703727     0.06300
H1584       H  0.37534839  0.03135676  0.82181667     0.07100
C1585       C  0.38413653  0.91180648  0.78392921    -0.22500
C1586       C  0.37778527  0.89636354  0.75909208     0.09500
C1587       C  0.35176199  0.90134489  0.74462364     0.09900
C1588       C  0.33266499  0.92206918  0.75524280    -0.17400
C1589       C  0.33882323  0.93753029  0.78031101    -0.27800
C1590       C  0.36498215  0.93222236  0.79488119     0.18200
C1591       C  0.39883128  0.87495464  0.74886581     0.12200
C1592       C  0.34427354  0.88483206  0.71798425    -0.12200
H1593       H  0.31275437  0.92606993  0.74404913     0.12500
C1594       C  0.37342494  0.94840809  0.82150723    -0.23000
H1595       H  0.40423479  0.90779430  0.79477158     0.08100
C1596       C  0.42203686  0.88292299  0.73119757     0.04500
C1597       C  0.44200584  0.86204495  0.72291484    -0.20200
C1598       C  0.43953330  0.83354109  0.73229293    -0.12500
C1599       C  0.41605267  0.82549201  0.74969273     0.13200
C1600       C  0.39604207  0.84641105  0.75788250    -0.23000
C1601       C  0.42582266  0.91345785  0.72133852    -0.06000
H1602       H  0.45998855  0.86808655  0.70947413     0.14700
C1603       C  0.41092789  0.79506003  0.75926448    -0.16200
H1604       H  0.37808088  0.84042436  0.77136958     0.09000
H1605       H  0.39533689  0.94267824  0.82877887     0.06900
H1606       H  0.35843914  0.94322467  0.83922775     0.08100
H1607       H  0.37311518  0.97180604  0.81727783     0.07100
H1608       H  0.34341417  0.86155301  0.72290691     0.02000
H1609       H  0.36074729  0.88868561  0.70125440     0.02500
H1610       H  0.32311814  0.89133413  0.70927461     0.06000
H1611       H  0.44508720  0.91597893  0.70756387     0.05000
H1612       H  0.42831439  0.92776503  0.74014986    -0.00800
H1613       H  0.40680015  0.92028516  0.70883938     0.00700
H1614       H  0.41149431  0.79397634  0.78298559     0.04300
H1615       H  0.42691128  0.77979762  0.75067921     0.06300
H1616       H  0.38950787  0.78788597  0.75178367     0.07100
C1617       C  0.16989918  0.92478755  0.73557684    -0.22500
C1618       C  0.15234890  0.91315108  0.75706966     0.09500
C1619       C  0.15996284  0.91690961  0.78601327     0.09900
C1620       C  0.18450922  0.93271613  0.79281484    -0.17400
C1621       C  0.20154280  0.94561539  0.77156554    -0.27800
C1622       C  0.19424766  0.94135484  0.74237261     0.18200
C1623       C  0.12529293  0.89815341  0.74951139     0.12200
C1624       C  0.14151551  0.90528341  0.80990257    -0.12200
H1625       H  0.18993355  0.93591434  0.81517448     0.12500
C1626       C  0.21022142  0.95500658  0.71783158    -0.23000
H1627       H  0.16393177  0.92181995  0.71333081     0.08100
C1628       C  0.10022568  0.91348592  0.74213296     0.04500
C1629       C  0.07384383  0.89891298  0.74059485    -0.20200
C1630       C  0.07202700  0.86958746  0.74697853    -0.12500
C1631       C  0.09738674  0.85399267  0.75275697     0.13200
C1632       C  0.12372953  0.86845284  0.75368219    -0.23000
C1633       C  0.10114342  0.94535982  0.73703984    -0.06000
H1634       H  0.05444190  0.91063003  0.73559695     0.14700
C1635       C  0.09680783  0.82205009  0.75781881    -0.16200
H1636       H  0.14308834  0.85678594  0.75904077     0.09000
H1637       H  0.19515746  0.96822063  0.70501590     0.06900
H1638       H  0.21924222  0.93799717  0.70387430     0.08100
H1639       H  0.22791397  0.96919416  0.72454686     0.07100
H1640       H  0.14066188  0.88154216  0.80878408     0.02000
H1641       H  0.11947038  0.91405701  0.80808659     0.02500
H1642       H  0.15001230  0.91120827  0.83128894     0.06000
H1643       H  0.07958371  0.95408736  0.73202348     0.05000
H1644       H  0.11551532  0.95018376  0.71870928    -0.00800
H1645       H  0.10926398  0.95642059  0.75643831     0.00700
H1646       H  0.08665320  0.81111647  0.73933296     0.04300
H1647       H  0.08456693  0.81714606  0.77755245     0.06300
H1648       H  0.11870145  0.81312965  0.76051868     0.07100
C1649       C  0.76469748  0.61426885  0.93648882    -0.22500
C1650       C  0.75663349  0.62375595  0.90927291     0.09500
C1651       C  0.75398588  0.65336200  0.90377221     0.09900
C1652       C  0.75978052  0.67301158  0.92575342    -0.17400
C1653       C  0.76833968  0.66361075  0.95296941    -0.27800
C1654       C  0.77071285  0.63380460  0.95845242     0.18200
C1655       C  0.74874148  0.60212968  0.88761863     0.12200
C1656       C  0.74502408  0.66410012  0.87473427    -0.12200
H1657       H  0.75815565  0.69582274  0.92153242     0.12500
C1658       C  0.77877045  0.62235521  0.98754069    -0.23000
H1659       H  0.76610569  0.59141335  0.94054743     0.08100
C1660       C  0.76907146  0.58994089  0.86892923     0.04500
C1661       C  0.76015459  0.56912544  0.84912609    -0.20200
C1662       C  0.73146977  0.55984054  0.84807806    -0.12500
C1663       C  0.71118354  0.57222744  0.86713667     0.13200
C1664       C  0.72018604  0.59325238  0.88651917    -0.23000
C1665       C  0.80010727  0.59874046  0.87012530    -0.06000
H1666       H  0.77577314  0.55968774  0.83477888     0.14700
C1667       C  0.67985935  0.56417617  0.86704672    -0.16200
H1668       H  0.70488117  0.60282482  0.90112025     0.09000
H1669       H  0.80125879  0.62815103  0.99253627     0.06900
H1670       H  0.77718125  0.59860726  0.98848173     0.08100
H1671       H  0.76421907  0.63131184  0.00410033     0.07100
H1672       H  0.72342689  0.65567493  0.86938277     0.02000
H1673       H  0.76057795  0.65677050  0.85830655     0.02500
H1674       H  0.74413584  0.68788485  0.87399476     0.06000
H1675       H  0.81320749  0.58710003  0.85403454     0.05000
H1676       H  0.80892871  0.59398492  0.89166569    -0.00800
H1677       H  0.80209732  0.62206818  0.86585260     0.00700
H1678       H  0.67713819  0.54145214  0.87354075     0.04300
H1679       H  0.67073453  0.56769562  0.84545568     0.06300
H1680       H  0.66722834  0.57734166  0.88231419     0.07100
C1681       C  0.75870912  0.60545152  0.16459154    -0.22500
C1682       C  0.74728042  0.60526548  0.13685624     0.09500
C1683       C  0.72811327  0.58329779  0.12883520     0.09900
C1684       C  0.71994448  0.56263821  0.14912253    -0.17400
C1685       C  0.73111853  0.56285398  0.17703840    -0.27800
C1686       C  0.75081231  0.58460472  0.18488789     0.18200
C1687       C  0.75629290  0.62775305  0.11621605     0.12200
C1688       C  0.71690215  0.58120191  0.09866835    -0.12200
H1689       H  0.70511690  0.54581509  0.14299078     0.12500
C1690       C  0.76310738  0.58732046  0.21456037    -0.23000
H1691       H  0.77364760  0.62224293  0.17055473     0.08100
C1692       C  0.73939015  0.65225250  0.11086001     0.04500
C1693       C  0.74808931  0.67196293  0.08974019    -0.20200
C1694       C  0.77379245  0.66821835  0.07444019    -0.12500
C1695       C  0.79123141  0.64401361  0.08076909     0.13200
C1696       C  0.78206653  0.62408424  0.10139185    -0.23000
C1697       C  0.71243324  0.65777217  0.12775431    -0.06000
H1698       H  0.73486118  0.69053502  0.08533298     0.14700
C1699       C  0.81911951  0.63829673  0.06544226    -0.16200
H1700       H  0.79495924  0.60527627  0.10585800     0.09000
H1701       H  0.75817319  0.60893010  0.22320645     0.06900
H1702       H  0.78673272  0.58462568  0.21364623     0.08100
H1703       H  0.75429536  0.57152144  0.22983660     0.07100
H1704       H  0.73511608  0.57876969  0.08355014     0.02000
H1705       H  0.70472577  0.60080230  0.09301905     0.02500
H1706       H  0.70242912  0.56248297  0.09593173     0.06000
H1707       H  0.70192529  0.67808078  0.12116187     0.05000
H1708       H  0.71772487  0.65934834  0.15085806    -0.00800
H1709       H  0.69689980  0.64004824  0.12460943     0.00700
H1710       H  0.83482580  0.65547029  0.07039439     0.04300
H1711       H  0.81542712  0.63724775  0.04203244     0.06300
H1712       H  0.82887051  0.61763624  0.07212754     0.07100
C1713       C  0.92919625  0.73629198  0.84949592    -0.22500
C1714       C  0.90820977  0.75524056  0.85948393     0.09500
C1715       C  0.90247669  0.78061370  0.84410724     0.09900
C1716       C  0.91894833  0.78721799  0.81980883    -0.17400
C1717       C  0.94120944  0.76911483  0.81052523    -0.27800
C1718       C  0.94586739  0.74283495  0.82526646     0.18200
C1719       C  0.89429824  0.74940964  0.88744944     0.12200
C1720       C  0.87931992  0.80097298  0.85370881    -0.12200
H1721       H  0.91507154  0.80719439  0.80859976     0.12500
C1722       C  0.96935644  0.72225786  0.81689298    -0.23000
H1723       H  0.93334656  0.71684968  0.86149340     0.08100
C1724       C  0.87119911  0.73011805  0.89023837     0.04500
C1725       C  0.85835399  0.72623463  0.91717929    -0.20200
C1726       C  0.86784533  0.74152290  0.94133989    -0.12500
C1727       C  0.89145693  0.76046670  0.93850779     0.13200
C1728       C  0.90449231  0.76392699  0.91162886    -0.23000
C1729       C  0.85972107  0.71421252  0.86467529    -0.06000
H1730       H  0.84015609  0.71191824  0.91915422     0.14700
C1731       C  0.90338353  0.77684272  0.96363460    -0.16200
H1732       H  0.92246361  0.77845358  0.90927021     0.09000
H1733       H  0.97015115  0.70332255  0.83129446     0.06900
H1734       H  0.99050475  0.73312919  0.81810509     0.08100
H1735       H  0.96561504  0.71423552  0.79485213     0.07100
H1736       H  0.88425509  0.80924978  0.87541283     0.02000
H1737       H  0.85839928  0.78961458  0.85426325     0.02500
H1738       H  0.87730523  0.81961585  0.83904576     0.06000
H1739       H  0.84128195  0.70027932  0.87047253     0.05000
H1740       H  0.87678016  0.70045339  0.85543720    -0.00800
H1741       H  0.85242671  0.72976392  0.84822943     0.00700
H1742       H  0.92316486  0.78877750  0.95783159     0.04300
H1743       H  0.90880587  0.76176314  0.98121066     0.06300
H1744       H  0.88752534  0.79281244  0.97128772     0.07100
C1745       C  0.71789822  0.87933742  0.87934351    -0.22500
C1746       C  0.73651074  0.87653191  0.90261740     0.09500
C1747       C  0.75083716  0.90093163  0.91332276     0.09900
C1748       C  0.74699365  0.92751275  0.89978472    -0.17400
C1749       C  0.72895705  0.93038630  0.87590073    -0.27800
C1750       C  0.71387279  0.90593605  0.86577991     0.18200
C1751       C  0.74189729  0.84770436  0.91483565     0.12200
C1752       C  0.77033716  0.89881778  0.93893495    -0.12200
H1753       H  0.75854641  0.94612075  0.90763384     0.12500
C1754       C  0.69466088  0.90720996  0.83985730    -0.23000
H1755       H  0.70702077  0.86040200  0.87133088     0.08100
C1756       C  0.72343152  0.83539225  0.93532444     0.04500
C1757       C  0.73181246  0.81014156  0.94939453    -0.20200
C1758       C  0.75895379  0.79792843  0.94455254    -0.12500
C1759       C  0.77596911  0.80861276  0.92168051     0.13200
C1760       C  0.76708997  0.83336359  0.90708272    -0.23000
C1761       C  0.69570982  0.84978096  0.94342303    -0.06000
H1762       H  0.71807720  0.80138403  0.96597613     0.14700
C1763       C  0.80352249  0.79430887  0.91249282    -0.16200
H1764       H  0.78062886  0.84250241  0.89055003     0.09000
H1765       H  0.67629321  0.92172593  0.84403665     0.06900
H1766       H  0.68573062  0.88582232  0.83437227     0.08100
H1767       H  0.70697419  0.91501156  0.82104188     0.07100
H1768       H  0.78838184  0.88405957  0.93423291     0.02000
H1769       H  0.75812224  0.89054103  0.95760960     0.02500
H1770       H  0.77950557  0.92000014  0.94480837     0.06000
H1771       H  0.68398539  0.83757058  0.96017136     0.05000
H1772       H  0.68167381  0.85148797  0.92434139    -0.00800
H1773       H  0.70014609  0.87159379  0.95184636     0.00700
H1774       H  0.81183898  0.80353764  0.89219345     0.04300
H1775       H  0.79974764  0.77106739  0.90892435     0.06300
H1776       H  0.82048229  0.79730464  0.92881260     0.07100
C1777       C  0.11990404  0.71969352  0.41877488    -0.22500
C1778       C  0.12518136  0.74428461  0.40256429     0.09500
C1779       C  0.14954070  0.76115843  0.40851750     0.09900
C1780       C  0.16818466  0.75295107  0.43072115    -0.17400
C1781       C  0.16279969  0.72845883  0.44758773    -0.27800
C1782       C  0.13811808  0.71149726  0.44120889     0.18200
C1783       C  0.10332160  0.75311908  0.38126545     0.12200
C1784       C  0.15572105  0.78786919  0.39146097    -0.12200
H1785       H  0.18687254  0.76602943  0.43510917     0.12500
C1786       C  0.13021978  0.68474162  0.45766205    -0.23000
H1787       H  0.10090547  0.70712764  0.41413238     0.08100
C1788       C  0.10143464  0.74052890  0.35391622     0.04500
C1789       C  0.07935309  0.74898209  0.33522737    -0.20200
C1790       C  0.05872527  0.76948330  0.34338885    -0.12500
C1791       C  0.06051455  0.78152920  0.37138772     0.13200
C1792       C  0.08284695  0.77324164  0.38968088    -0.23000
C1793       C  0.12277771  0.71824302  0.34451396    -0.06000
H1794       H  0.07832613  0.73952828  0.31409105     0.14700
C1795       C  0.03892714  0.80267893  0.38289279    -0.16200
H1796       H  0.08423135  0.78226264  0.41098449     0.09000
H1797       H  0.14772154  0.66872179  0.45617530     0.06900
H1798       H  0.11055321  0.67440532  0.44912700     0.08100
H1799       H  0.12587387  0.69016237  0.48037967     0.07100
H1800       H  0.13787289  0.80338993  0.39400926     0.02000
H1801       H  0.15801728  0.78231147  0.36847499     0.02500
H1802       H  0.17580177  0.79848333  0.39857267     0.06000
H1803       H  0.11847615  0.71070912  0.32239167     0.05000
H1804       H  0.12170497  0.69941226  0.35902617    -0.00800
H1805       H  0.14473715  0.72740235  0.34513355     0.00700
H1806       H  0.01715031  0.79311644  0.38211423     0.04300
H1807       H  0.03968828  0.82286842  0.37033148     0.06300
H1808       H  0.04325616  0.80846548  0.40552754     0.07100
C1809       C  0.84681634  0.75537573  0.40079305    -0.22500
C1810       C  0.87500313  0.74505374  0.40012849     0.09500
C1811       C  0.88430167  0.72548656  0.42117220     0.09900
C1812       C  0.86494583  0.71618340  0.44217915    -0.17400
C1813       C  0.83681545  0.72674992  0.44320736    -0.27800
C1814       C  0.82755385  0.74656254  0.42221065     0.18200
C1815       C  0.89493826  0.75582398  0.37794713     0.12200
C1816       C  0.91484225  0.71500113  0.42185309    -0.12200
H1817       H  0.87205866  0.70118079  0.45844147     0.12500
C1818       C  0.79729524  0.75785670  0.42182751    -0.23000
H1819       H  0.83997469  0.77055354  0.38456607     0.08100
C1820       C  0.89975875  0.74070737  0.35227822     0.04500
C1821       C  0.92064561  0.75068103  0.33299918    -0.20200
C1822       C  0.93633311  0.77579741  0.33857744    -0.12500
C1823       C  0.93071433  0.79138529  0.36409694     0.13200
C1824       C  0.91015614  0.78104610  0.38343828    -0.23000
C1825       C  0.88280708  0.71412276  0.34530811    -0.06000
H1826       H  0.92471265  0.73884726  0.31345883     0.14700
C1827       C  0.94692843  0.81828775  0.37185064    -0.16200
H1828       H  0.90619830  0.79243399  0.40329335     0.09000
H1829       H  0.79344124  0.77200016  0.40308817     0.06900
H1830       H  0.79306091  0.77062705  0.44139433     0.08100
H1831       H  0.78191988  0.73971398  0.42069104     0.07100
H1832       H  0.92961422  0.73349940  0.42442242     0.02000
H1833       H  0.92006181  0.70366697  0.40165514     0.02500
H1834       H  0.91857950  0.69995097  0.43989630     0.06000
H1835       H  0.88907995  0.70498319  0.32427981     0.05000
H1836       H  0.85962366  0.71942440  0.34452344    -0.00800
H1837       H  0.88636729  0.69750432  0.36192082     0.00700
H1838       H  0.94085997  0.82639317  0.39336216     0.04300
H1839       H  0.94213187  0.83554318  0.35622101     0.06300
H1840       H  0.97029112  0.81390591  0.37209485     0.07100
C1841       C  0.86827925  0.74856030  0.12688694    -0.22500
C1842       C  0.89815356  0.75146142  0.12593970     0.09500
C1843       C  0.91240431  0.75154616  0.09921454     0.09900
C1844       C  0.89626905  0.74917179  0.07397982    -0.17400
C1845       C  0.86632087  0.74742262  0.07500524    -0.27800
C1846       C  0.85209596  0.74678110  0.10174783     0.18200
C1847       C  0.91372989  0.75656189  0.15307327     0.12200
C1848       C  0.94444051  0.75512515  0.09724948    -0.12200
H1849       H  0.90693950  0.74948603  0.05337493     0.12500
C1850       C  0.81997859  0.74398966  0.10466562    -0.23000
H1851       H  0.85746277  0.74829457  0.14742377     0.08100
C1852       C  0.91149388  0.78310244  0.16740086     0.04500
C1853       C  0.92775931  0.78780710  0.19209832    -0.20200
C1854       C  0.94649045  0.76683359  0.20265863    -0.12500
C1855       C  0.94855841  0.74010285  0.18852167     0.13200
C1856       C  0.93172952  0.73515213  0.16410174    -0.23000
C1857       C  0.89304351  0.80701886  0.15592989    -0.06000
H1858       H  0.92683236  0.80851883  0.20260039     0.14700
C1859       C  0.96936636  0.71708879  0.19744597    -0.16200
H1860       H  0.93341492  0.71480994  0.15298187     0.09000
H1861       H  0.81138394  0.76305055  0.11601363     0.06900
H1862       H  0.81480347  0.72449942  0.11732240     0.08100
H1863       H  0.80870865  0.74214611  0.08390539     0.07100
H1864       H  0.95528999  0.73698856  0.10811994     0.02000
H1865       H  0.95091188  0.77556059  0.10757399     0.02500
H1866       H  0.95191192  0.75561453  0.07467445     0.06000
H1867       H  0.89483139  0.82672614  0.16914622     0.05000
H1868       H  0.87020802  0.80038521  0.15587884    -0.00800
H1869       H  0.89977874  0.81244034  0.13377621     0.00700
H1870       H  0.95743691  0.69709537  0.20244171     0.04300
H1871       H  0.98212562  0.72296700  0.21651090     0.06300
H1872       H  0.98452838  0.71276209  0.17961833     0.07100
C1873       C  0.89838033  0.25956275  0.35691781    -0.22500
C1874       C  0.89994739  0.24859933  0.38477926     0.09500
C1875       C  0.92248358  0.23003378  0.39226886     0.09900
C1876       C  0.94307965  0.22278555  0.37170199    -0.17400
C1877       C  0.94189118  0.23366793  0.34359794    -0.27800
C1878       C  0.91900527  0.25235389  0.33612231     0.18200
C1879       C  0.87809181  0.25703679  0.40617578     0.12200
C1880       C  0.92491736  0.21804298  0.42212677    -0.12200
H1881       H  0.96034646  0.20855888  0.37782606     0.12500
C1882       C  0.91564961  0.26450276  0.30640011    -0.23000
H1883       H  0.88090817  0.27384685  0.35149294     0.08100
C1884       C  0.88120804  0.28217916  0.42248778     0.04500
C1885       C  0.86135088  0.28811421  0.44419111    -0.20200
C1886       C  0.83826850  0.26949025  0.45023020    -0.12500
C1887       C  0.83495302  0.24442183  0.43324538     0.13200
C1888       C  0.85497399  0.23861716  0.41147871    -0.23000
C1889       C  0.90579840  0.30250642  0.41726403    -0.06000
H1890       H  0.86410595  0.30756261  0.45661375     0.14700
C1891       C  0.81088330  0.22333859  0.43792438    -0.16200
H1892       H  0.85293730  0.21926549  0.39875664     0.09000
H1893       H  0.89602665  0.27782269  0.30444589     0.06900
H1894       H  0.91397010  0.24680180  0.29060356     0.08100
H1895       H  0.93422723  0.27842404  0.30110532     0.07100
H1896       H  0.90557560  0.20515021  0.42727944     0.02000
H1897       H  0.92686204  0.23584834  0.43776342     0.02500
H1898       H  0.94397000  0.20398925  0.42449531     0.06000
H1899       H  0.90520419  0.32112394  0.43207122     0.05000
H1900       H  0.90480652  0.31079631  0.39501862    -0.00800
H1901       H  0.92645855  0.29116236  0.42045504     0.00700
H1902       H  0.81217896  0.20491262  0.42292632     0.04300
H1903       H  0.78993178  0.23400158  0.43432030     0.06300
H1904       H  0.81188987  0.21462372  0.46001238     0.07100
C1905       C  0.12099783  0.28138740  0.41879642    -0.22500
C1906       C  0.12854134  0.25827753  0.40132522     0.09500
C1907       C  0.15475711  0.24395301  0.40584140     0.09900
C1908       C  0.17272995  0.25285618  0.42825826    -0.17400
C1909       C  0.16501166  0.27576492  0.44617969    -0.27800
C1910       C  0.13854158  0.29005048  0.44150770     0.18200
C1911       C  0.10732155  0.24801092  0.38017911     0.12200
C1912       C  0.16366483  0.21934671  0.38698498    -0.12200
H1913       H  0.19300873  0.24205245  0.43166939     0.12500
C1914       C  0.12700460  0.31336913  0.46071284    -0.23000
H1915       H  0.10058730  0.29196629  0.41542735     0.08100
C1916       C  0.08659504  0.22739206  0.38788397     0.04500
C1917       C  0.06614725  0.21883559  0.36770180    -0.20200
C1918       C  0.06557996  0.23076763  0.34010988    -0.12500
C1919       C  0.08661330  0.25126524  0.33227083     0.13200
C1920       C  0.10710325  0.25980857  0.35258634    -0.23000
C1921       C  0.08573655  0.21482233  0.41760003    -0.06000
H1922       H  0.05006468  0.20317237  0.37370320     0.14700
C1923       C  0.08890086  0.26376950  0.30262023    -0.16200
H1924       H  0.12314359  0.27562140  0.34682618     0.09000
H1925       H  0.10505082  0.30754793  0.46788194     0.06900
H1926       H  0.12596248  0.33386418  0.44865716     0.08100
H1927       H  0.13964638  0.31671032  0.48037357     0.07100
H1928       H  0.16511887  0.22673381  0.36443959     0.02000
H1929       H  0.14768316  0.20176699  0.38843493     0.02500
H1930       H  0.18486998  0.21060847  0.39330830     0.06000
H1931       H  0.06805007  0.19906197  0.42007388     0.05000
H1932       H  0.08243637  0.23216745  0.43352695    -0.00800
H1933       H  0.10621573  0.20370173  0.42228662     0.00700
H1934       H  0.08531925  0.28727915  0.30354726     0.04300
H1935       H  0.07348494  0.25434996  0.28736794     0.06300
H1936       H  0.11067822  0.25965771  0.29394018     0.07100
C1937       C  0.92271534  0.26817448  0.17318675    -0.22500
C1938       C  0.90763336  0.24704436  0.15821317     0.09500
C1939       C  0.90642223  0.21890989  0.16909058     0.09900
C1940       C  0.92216757  0.21202323  0.19365246    -0.17400
C1941       C  0.93936898  0.23255348  0.20760854    -0.27800
C1942       C  0.93850250  0.26144994  0.19787204     0.18200
C1943       C  0.89506106  0.25425857  0.13007441     0.12200
C1944       C  0.88882964  0.19607029  0.15450589    -0.12200
H1945       H  0.92188944  0.19003841  0.20125378     0.12500
C1946       C  0.95467225  0.28530875  0.21247870    -0.23000
H1947       H  0.92304338  0.28986463  0.16478330     0.08100
C1948       C  0.86940893  0.26996687  0.12762341     0.04500
C1949       C  0.85805350  0.27521978  0.10035717    -0.20200
C1950       C  0.87160808  0.26481410  0.07556915    -0.12500
C1951       C  0.89794472  0.25003631  0.07804115     0.13200
C1952       C  0.90925296  0.24487216  0.10532873    -0.23000
C1953       C  0.85350925  0.28019070  0.15375441    -0.06000
H1954       H  0.83773091  0.28634036  0.09847127     0.14700
C1955       C  0.91500475  0.23994717  0.05254793    -0.16200
H1956       H  0.92928439  0.23327933  0.10737340     0.09000
H1957       H  0.95051077  0.30643305  0.20231148     0.06900
H1958       H  0.97808347  0.28137413  0.21117254     0.08100
H1959       H  0.94784699  0.28685252  0.23520090     0.07100
H1960       H  0.89691628  0.19239181  0.13247622     0.02000
H1961       H  0.86608149  0.20296333  0.15347211     0.02500
H1962       H  0.88973713  0.17533720  0.16618475     0.06000
H1963       H  0.83342341  0.29158121  0.14799659     0.05000
H1964       H  0.86716436  0.29520630  0.16612421    -0.00800
H1965       H  0.84780077  0.26157441  0.16745370     0.00700
H1966       H  0.93709726  0.24873293  0.05382222     0.04300
H1967       H  0.90598279  0.24712150  0.03184275     0.06300
H1968       H  0.91615636  0.21617014  0.05264685     0.07100
C1969       C  0.84892235  0.24486531  0.61952004    -0.22500
C1970       C  0.87724002  0.25487858  0.61826110     0.09500
C1971       C  0.88573113  0.27308400  0.59569901     0.09900
C1972       C  0.86567001  0.28089695  0.57481700    -0.17400
C1973       C  0.83737863  0.27065806  0.57570543    -0.27800
C1974       C  0.82870817  0.25279583  0.59868157     0.18200
C1975       C  0.89817841  0.24518258  0.63999441     0.12200
C1976       C  0.91608297  0.28395322  0.59348803    -0.12200
H1977       H  0.87223253  0.29477547  0.55735468     0.12500
C1978       C  0.79828924  0.24268374  0.60265414    -0.23000
H1979       H  0.84250645  0.23098628  0.63701900     0.08100
C1980       C  0.90356125  0.26100903  0.66513379     0.04500
C1981       C  0.92535110  0.25200219  0.68384110    -0.20200
C1982       C  0.94147680  0.22721362  0.67818865    -0.12500
C1983       C  0.93557702  0.21111169  0.65305224     0.13200
C1984       C  0.91405062  0.22043043  0.63433358    -0.23000
C1985       C  0.88627291  0.28733459  0.67213034    -0.06000
H1986       H  0.92963930  0.26422548  0.70311347     0.14700
C1987       C  0.95245583  0.18470098  0.64504222    -0.16200
H1988       H  0.90978549  0.20856580  0.61481365     0.09000
H1989       H  0.79032072  0.24969006  0.62393450     0.06900
H1990       H  0.79754209  0.21891676  0.60160677     0.08100
H1991       H  0.78343900  0.25143726  0.58647603     0.07100
H1992       H  0.93107809  0.26558247  0.59159623     0.02000
H1993       H  0.92159495  0.29656352  0.61284428     0.02500
H1994       H  0.91912360  0.29796790  0.57449866     0.06000
H1995       H  0.89313444  0.29717029  0.69265237     0.05000
H1996       H  0.86327008  0.28149720  0.67400816    -0.00800
H1997       H  0.88883719  0.30357266  0.65495086     0.00700
H1998       H  0.94851230  0.16734650  0.66082100     0.04300
H1999       H  0.97568199  0.18986588  0.64420899     0.06300
H2000       H  0.94615769  0.17627956  0.62372411     0.07100
C2001       C  0.11822783  0.27664149  0.59416583    -0.22500
C2002       C  0.12857216  0.25920977  0.61618835     0.09500
C2003       C  0.15726905  0.24982998  0.61558595     0.09900
C2004       C  0.17490025  0.25772724  0.59252870    -0.17400
C2005       C  0.16460177  0.27498105  0.57005596    -0.27800
C2006       C  0.13577269  0.28490455  0.57121068     0.18200
C2007       C  0.10818432  0.24955352  0.63851444     0.12200
C2008       C  0.16934381  0.23178236  0.63943672    -0.12200
H2009       H  0.19696398  0.25043919  0.59219998     0.12500
C2010       C  0.12276220  0.30363572  0.54831200    -0.23000
H2011       H  0.09603068  0.28350756  0.59482661     0.08100
C2012       C  0.09769771  0.26828266  0.65973188     0.04500
C2013       C  0.07654217  0.25853592  0.67880928    -0.20200
C2014       C  0.06545124  0.23049241  0.67709964    -0.12500
C2015       C  0.07686498  0.21147665  0.65621040     0.13200
C2016       C  0.09790686  0.22141658  0.63716720    -0.23000
C2017       C  0.10894153  0.29846384  0.66231624    -0.06000
H2018       H  0.06828413  0.27314633  0.69482518     0.14700
C2019       C  0.06758905  0.18057446  0.65380277    -0.16200
H2020       H  0.10616387  0.20726856  0.62072834     0.09000
H2021       H  0.13394387  0.32464745  0.54757531     0.06900
H2022       H  0.09975240  0.30811876  0.55246613     0.08100
H2023       H  0.12423022  0.29276716  0.52724018     0.07100
H2024       H  0.15763207  0.21111602  0.64082606     0.02000
H2025       H  0.16718817  0.24340091  0.66005674     0.02500
H2026       H  0.19239922  0.22693459  0.63601040     0.06000
H2027       H  0.09898091  0.31002505  0.68055945     0.05000
H2028       H  0.10423204  0.31069098  0.64250139    -0.00800
H2029       H  0.13247919  0.29797390  0.66576681     0.00700
H2030       H  0.04475802  0.17932269  0.64731874     0.04300
H2031       H  0.07078496  0.16949536  0.67456987     0.06300
H2032       H  0.08021001  0.16878248  0.63743890     0.07100
C2033       C  0.84474823  0.09066611  0.79119840    -0.22500
C2034       C  0.85363574  0.09236065  0.76263423     0.09500
C2035       C  0.83730256  0.07872034  0.74117052     0.09900
C2036       C  0.81304061  0.06254002  0.74902418    -0.17400
C2037       C  0.80517023  0.05942268  0.77788245    -0.27800
C2038       C  0.82074501  0.07444765  0.79915057     0.18200
C2039       C  0.88114892  0.10710513  0.75646929     0.12200
C2040       C  0.84565884  0.08104710  0.71013668    -0.12200
H2041       H  0.80102653  0.05116557  0.73274061     0.12500
C2042       C  0.81215467  0.07370113  0.83028995    -0.23000
H2043       H  0.85728042  0.10144441  0.80751910     0.08100
C2044       C  0.88384649  0.13713034  0.75891004     0.04500
C2045       C  0.91114444  0.14963453  0.75729691    -0.20200
C2046       C  0.93579138  0.13286738  0.75317285    -0.12500
C2047       C  0.93305035  0.10287303  0.74989153     0.13200
C2048       C  0.90567626  0.09038116  0.75152118    -0.23000
C2049       C  0.85795593  0.15594234  0.76319151    -0.06000
H2050       H  0.91333236  0.17268269  0.75942910     0.14700
C2051       C  0.95844594  0.08326259  0.74621351    -0.16200
H2052       H  0.90356714  0.06728998  0.75009059     0.09000
H2053       H  0.82533793  0.08856561  0.84338498     0.06900
H2054       H  0.81516290  0.05188491  0.83921637     0.08100
H2055       H  0.78939665  0.08026400  0.83255542     0.07100
H2056       H  0.86727346  0.07171667  0.70679095     0.02000
H2057       H  0.84593592  0.10394872  0.70362826     0.02500
H2058       H  0.83036127  0.06945646  0.69608478     0.06000
H2059       H  0.86383374  0.17901773  0.76378844     0.05000
H2060       H  0.84720750  0.15057494  0.78369526    -0.00800
H2061       H  0.84267325  0.15266690  0.74529400     0.00700
H2062       H  0.95868124  0.06725318  0.76381026     0.04300
H2063       H  0.97926601  0.09467236  0.74665944     0.06300
H2064       H  0.95667332  0.07179334  0.72548590     0.07100
C2065       C  0.10414894  0.09628426  0.77215154    -0.22500
C2066       C  0.12769753  0.10870232  0.75819888     0.09500
C2067       C  0.12371137  0.13256667  0.74023278     0.09900
C2068       C  0.09604782  0.14366017  0.73670422    -0.17400
C2069       C  0.07231196  0.13150792  0.75086386    -0.27800
C2070       C  0.07645088  0.10749403  0.76890999     0.18200
C2071       C  0.15612958  0.09553321  0.76234245     0.12200
C2072       C  0.14862000  0.14634607  0.72496358    -0.12200
H2073       H  0.09307473  0.16242148  0.72334310     0.12500
C2074       C  0.05189369  0.09319204  0.78431658    -0.23000
H2075       H  0.10757092  0.07776599  0.78575100     0.08100
C2076       C  0.17341646  0.10263416  0.78599071     0.04500
C2077       C  0.19782850  0.08610787  0.79174799    -0.20200
C2078       C  0.20501512  0.06237059  0.77464511    -0.12500
C2079       C  0.18836762  0.05634267  0.74996704     0.13200
C2080       C  0.16424138  0.07323805  0.74406380    -0.23000
C2081       C  0.16541772  0.12686753  0.80575291    -0.06000
H2082       H  0.21055809  0.09086095  0.81054759     0.14700
C2083       C  0.19432727  0.03091477  0.73097642    -0.16200
H2084       H  0.15065504  0.06805399  0.72600250     0.09000
H2085       H  0.04263954  0.10799940  0.80042760     0.06900
H2086       H  0.05892778  0.07359613  0.79585285     0.08100
H2087       H  0.03513297  0.08683752  0.76870570     0.07100
H2088       H  0.15899310  0.13048208  0.71061363     0.02000
H2089       H  0.16455640  0.15409233  0.74079008     0.02500
H2090       H  0.14171706  0.16492770  0.71178568     0.06000
H2091       H  0.18124347  0.12948326  0.82329686     0.05000
H2092       H  0.14412977  0.12264107  0.81552603    -0.00800
H2093       H  0.16448921  0.14728312  0.79358022     0.00700
H2094       H  0.19309454  0.01088464  0.74375680     0.04300
H2095       H  0.21589111  0.03299686  0.72113634     0.06300
H2096       H  0.17851388  0.02911300  0.71332202     0.07100
C2097       C  0.90795540  0.25228992  0.83933143    -0.22500
C2098       C  0.92232824  0.25853489  0.86496439     0.09500
C2099       C  0.95250604  0.25955838  0.86529623     0.09900
C2100       C  0.96766239  0.25264059  0.84038655    -0.17400
C2101       C  0.95342704  0.24451293  0.81520209    -0.27800
C2102       C  0.92315491  0.24512605  0.81433638     0.18200
C2103       C  0.90572116  0.25994662  0.89195426     0.12200
C2104       C  0.96870651  0.26673913  0.89224431    -0.12200
H2105       H  0.99093664  0.25203250  0.84099515     0.12500
C2106       C  0.90622819  0.23653050  0.78826551    -0.23000
H2107       H  0.88468554  0.25145554  0.83925627     0.08100
C2108       C  0.89368851  0.28566603  0.90216274     0.04500
C2109       C  0.87816626  0.28539729  0.92796569    -0.20200
C2110       C  0.87390544  0.25983854  0.94345016    -0.12500
C2111       C  0.88675518  0.23419484  0.93341772     0.13200
C2112       C  0.90248744  0.23467057  0.90782146    -0.23000
C2113       C  0.89707658  0.31322165  0.88570613    -0.06000
H2114       H  0.86868898  0.30512909  0.93570326     0.14700
C2115       C  0.88476951  0.20639884  0.94982160    -0.16200
H2116       H  0.91229840  0.21511345  0.89996003     0.09000
H2117       H  0.89238020  0.25466619  0.78153246     0.06900
H2118       H  0.89243522  0.21784634  0.79354824     0.08100
H2119       H  0.91985834  0.23051308  0.76982635     0.07100
H2120       H  0.96367648  0.25081140  0.90918009     0.02000
H2121       H  0.96252958  0.28842959  0.89978501     0.02500
H2122       H  0.99226677  0.26659083  0.88870273     0.06000
H2123       H  0.88632379  0.33141049  0.89665009     0.05000
H2124       H  0.88747571  0.31084874  0.86411307    -0.00800
H2125       H  0.92016741  0.31852016  0.88343137     0.00700
H2126       H  0.89813483  0.18934718  0.93996781     0.04300
H2127       H  0.86233641  0.19851297  0.95005058     0.06300
H2128       H  0.89241417  0.20965118  0.97208464     0.07100
C2129       C  0.28509948  0.58456927  0.12544342    -0.22500
C2130       C  0.26229794  0.60294731  0.13155806     0.09500
C2131       C  0.24655557  0.59939213  0.15703281     0.09900
C2132       C  0.25443988  0.57769602  0.17626886    -0.17400
C2133       C  0.27733744  0.55892468  0.17033646    -0.27800
C2134       C  0.29285772  0.56249864  0.14428344     0.18200
C2135       C  0.25390520  0.62423813  0.10973050     0.12200
C2136       C  0.22100106  0.61803415  0.16355169    -0.12200
H2137       H  0.24232275  0.57524658  0.19589476     0.12500
C2138       C  0.31750820  0.54340550  0.13568185    -0.23000
H2139       H  0.29666293  0.58735911  0.10545640     0.08100
C2140       C  0.26384768  0.65274224  0.11038484     0.04500
C2141       C  0.25494247  0.67195094  0.08901756    -0.20200
C2142       C  0.23668363  0.66315095  0.06668723    -0.12500
C2143       C  0.22755452  0.63399697  0.06578236     0.13200
C2144       C  0.23624946  0.61512202  0.08742466    -0.23000
C2145       C  0.28419512  0.66269427  0.13333642    -0.06000
H2146       H  0.26227537  0.69395905  0.08987091     0.14700
C2147       C  0.20908953  0.62203790  0.04211269    -0.16200
H2148       H  0.22925715  0.59295530  0.08701723     0.09000
H2149       H  0.33499649  0.54494378  0.15168412     0.06900
H2150       H  0.32671298  0.54963977  0.11464134     0.08100
H2151       H  0.31003102  0.52088222  0.13372663     0.07100
H2152       H  0.20466967  0.61550366  0.14647677     0.02000
H2153       H  0.22759630  0.64085774  0.16465415     0.02500
H2154       H  0.21090000  0.61223859  0.18429717     0.06000
H2155       H  0.29009426  0.68560527  0.13058989     0.05000
H2156       H  0.30414460  0.64975613  0.13248437    -0.00800
H2157       H  0.27421270  0.66013908  0.15473792     0.00700
H2158       H  0.21958002  0.62568713  0.02107433     0.04300
H2159       H  0.18761544  0.63224295  0.04255156     0.06300
H2160       H  0.20568178  0.59857197  0.04440709     0.07100
C2161       C  0.26760197  0.63684788  0.92350195    -0.22500
C2162       C  0.25061198  0.63569328  0.89882973     0.09500
C2163       C  0.22683217  0.65408465  0.89611796     0.09900
C2164       C  0.21996389  0.67264349  0.91867880    -0.17400
C2165       C  0.23640299  0.67327539  0.94385596    -0.27800
C2166       C  0.26084369  0.65542862  0.94613164     0.18200
C2167       C  0.25686785  0.61340078  0.87723339     0.12200
C2168       C  0.20861866  0.65394785  0.86953134    -0.12200
H2169       H  0.20134773  0.68638709  0.91686431     0.12500
C2170       C  0.27897396  0.65465451  0.97280770    -0.23000
H2171       H  0.28575367  0.62244808  0.92536735     0.08100
C2172       C  0.27972556  0.61619366  0.85768857     0.04500
C2173       C  0.28615887  0.59328094  0.83935583    -0.20200
C2174       C  0.27001526  0.56782890  0.83993168    -0.12500
C2175       C  0.24652818  0.56545523  0.85897344     0.13200
C2176       C  0.24035887  0.58829039  0.87749219    -0.23000
C2177       C  0.29722448  0.64330765  0.85621843    -0.06000
H2178       H  0.30404003  0.59515371  0.82457878     0.14700
C2179       C  0.22874801  0.53850876  0.86088250    -0.16200
H2180       H  0.22289415  0.58638786  0.89271838     0.09000
H2181       H  0.29628686  0.63839151  0.97126828     0.06900
H2182       H  0.26544761  0.64917133  0.99161026     0.08100
H2183       H  0.28929975  0.67582116  0.97619938     0.07100
H2184       H  0.19871707  0.63251058  0.86658058     0.02000
H2185       H  0.22212098  0.65905971  0.85061776     0.02500
H2186       H  0.19112347  0.67004235  0.87073854     0.06000
H2187       H  0.31400784  0.64209606  0.83937359     0.05000
H2188       H  0.30797353  0.64715018  0.87703181    -0.00800
H2189       H  0.28301795  0.66173441  0.85123789     0.00700
H2190       H  0.21226318  0.53995936  0.87799053     0.04300
H2191       H  0.24274130  0.51987994  0.86573403     0.06300
H2192       H  0.21741391  0.53482092  0.84035019     0.07100
C2193       C  0.08231818  0.73060024  0.84289002    -0.22500
C2194       C  0.09151834  0.75216531  0.86170008     0.09500
C2195       C  0.08453150  0.78094874  0.85593456     0.09900
C2196       C  0.06816455  0.78748470  0.83178511    -0.17400
C2197       C  0.05776748  0.76601261  0.81332392    -0.27800
C2198       C  0.06509894  0.73700207  0.81895376     0.18200
C2199       C  0.10737654  0.74460607  0.88813518     0.12200
C2200       C  0.09344157  0.80478413  0.87585855    -0.12200
H2201       H  0.06269708  0.80972792  0.82776186     0.12500
C2202       C  0.05412965  0.71201916  0.80168719    -0.23000
H2203       H  0.08771721  0.70845508  0.84755420     0.08100
C2204       C  0.09300867  0.73458664  0.91282787     0.04500
C2205       C  0.10812658  0.73220322  0.93872508    -0.20200
C2206       C  0.13713362  0.73994172  0.94041853    -0.12500
C2207       C  0.15192373  0.74821857  0.91521674     0.13200
C2208       C  0.13674219  0.75070876  0.88947470    -0.23000
C2209       C  0.06153089  0.72746745  0.91206927    -0.06000
H2210       H  0.09704506  0.72532777  0.95791208     0.14700
C2211       C  0.18375419  0.75402708  0.91439320    -0.16200
H2212       H  0.14774314  0.75803958  0.87041535     0.09000
H2213       H  0.04264682  0.69689258  0.81605927     0.06900
H2214       H  0.07250502  0.70064301  0.79173480     0.08100
H2215       H  0.03897218  0.71801159  0.78462558     0.07100
H2216       H  0.11716104  0.80605463  0.87693011     0.02000
H2217       H  0.08474491  0.80068456  0.89761594     0.02500
H2218       H  0.08536655  0.82596786  0.86859355     0.06000
H2219       H  0.05354707  0.72035289  0.93331887     0.05000
H2220       H  0.05764680  0.70989260  0.89654060    -0.00800
H2221       H  0.04909757  0.74666206  0.90551633     0.00700
H2222       H  0.19387171  0.74020558  0.89789735     0.04300
H2223       H  0.19474973  0.74935185  0.93485066     0.06300
H2224       H  0.18759198  0.77681755  0.90868535     0.07100
C2225       C  0.12761154  0.72314339  0.12720157    -0.22500
C2226       C  0.10474494  0.74245761  0.12860727     0.09500
C2227       C  0.09480830  0.75594419  0.10351967     0.09900
C2228       C  0.10841988  0.75017459  0.07744305    -0.17400
C2229       C  0.13189171  0.73138850  0.07590684    -0.27800
C2230       C  0.14151017  0.71748380  0.10116142     0.18200
C2231       C  0.09176563  0.74893687  0.15666129     0.12200
C2232       C  0.07015584  0.77679728  0.10438780    -0.12200
H2233       H  0.10114986  0.76097476  0.05825391     0.12500
C2234       C  0.16726636  0.69793592  0.10130015    -0.23000
H2235       H  0.13500354  0.71301760  0.14672238     0.08100
C2236       C  0.06893769  0.73244410  0.16751103     0.04500
C2237       C  0.05499693  0.74140861  0.19249451    -0.20200
C2238       C  0.06290307  0.76693007  0.20641896    -0.12500
C2239       C  0.08701284  0.78256353  0.19634255     0.13200
C2240       C  0.10125439  0.77314677  0.17161700    -0.23000
C2241       C  0.05857124  0.70608890  0.15203143    -0.06000
H2242       H  0.03662239  0.72935743  0.20007443     0.14700
C2243       C  0.09786841  0.80915025  0.21125014    -0.16200
H2244       H  0.11913155  0.78538765  0.16315568     0.09000
H2245       H  0.17225504  0.69000693  0.12314890     0.06900
H2246       H  0.18639482  0.70967406  0.09330086     0.08100
H2247       H  0.16315619  0.67892830  0.08762438     0.07100
H2248       H  0.07562769  0.79518799  0.11843427     0.02000
H2249       H  0.05071939  0.76596134  0.11285444     0.02500
H2250       H  0.06505964  0.78534831  0.08279947     0.06000
H2251       H  0.04030060  0.69577595  0.16331318     0.05000
H2252       H  0.07623321  0.69023582  0.15047441    -0.00800
H2253       H  0.05138085  0.71194286  0.13015680     0.00700
H2254       H  0.11835511  0.81682188  0.20181559     0.04300
H2255       H  0.10175033  0.80443941  0.23420055     0.06300
H2256       H  0.08222304  0.82692038  0.20920039     0.07100
C2257       C  0.25929754  0.88204094  0.88046085    -0.22500
C2258       C  0.26089497  0.88249538  0.91035491     0.09500
C2259       C  0.26576056  0.90866952  0.92473320     0.09900
C2260       C  0.26811403  0.93409199  0.90876155    -0.17400
C2261       C  0.26509880  0.93376435  0.87892383    -0.27800
C2262       C  0.26135212  0.90735364  0.86448930     0.18200
C2263       C  0.25378299  0.85596920  0.92616195     0.12200
C2264       C  0.26740003  0.90983389  0.95689713    -0.12200
H2265       H  0.27125404  0.95437709  0.91961733     0.12500
C2266       C  0.25968425  0.90494599  0.83231466    -0.23000
H2267       H  0.25558850  0.86185678  0.86957864     0.08100
C2268       C  0.22495638  0.84793108  0.93006309     0.04500
C2269       C  0.21861365  0.82338243  0.94595227    -0.20200
C2270       C  0.24028612  0.80682890  0.95869280    -0.12500
C2271       C  0.26936813  0.81475181  0.95456907     0.13200
C2272       C  0.27569608  0.83910257  0.93790320    -0.23000
C2273       C  0.20077344  0.86577147  0.91820403    -0.06000
H2274       H  0.19635004  0.81747907  0.94914509     0.14700
C2275       C  0.29418612  0.79946374  0.96845267    -0.16200
H2276       H  0.29782657  0.84555926  0.93485263     0.09000
H2277       H  0.23842754  0.89622299  0.82611824     0.06900
H2278       H  0.27662851  0.89011858  0.82462107     0.08100
H2279       H  0.26286886  0.92561907  0.82107590     0.07100
H2280       H  0.28543867  0.89633156  0.96448811     0.02000
H2281       H  0.24707404  0.90176277  0.96632483     0.02500
H2282       H  0.27092618  0.93204334  0.96471277     0.06000
H2283       H  0.17947746  0.85673026  0.92387668     0.05000
H2284       H  0.20226596  0.86668562  0.89452518    -0.00800
H2285       H  0.20198546  0.88786033  0.92698523     0.00700
H2286       H  0.30839087  0.79047968  0.95162179     0.04300
H2287       H  0.28773708  0.78186989  0.98290476     0.06300
H2288       H  0.30667529  0.81497015  0.98146668     0.07100
C2289       C  0.24454973  0.39596810  0.85590092    -0.22500
C2290       C  0.25658038  0.39658008  0.88336543     0.09500
C2291       C  0.27504410  0.41921266  0.89097249     0.09900
C2292       C  0.28052549  0.44114190  0.87121395    -0.17400
C2293       C  0.26822293  0.44113093  0.84368176    -0.27800
C2294       C  0.25020491  0.41782724  0.83584014     0.18200
C2295       C  0.24842246  0.37432480  0.90460654     0.12200
C2296       C  0.28866580  0.42046943  0.92017969    -0.12200
H2297       H  0.29456537  0.45852822  0.87754676     0.12500
C2298       C  0.23711078  0.41537516  0.80647142    -0.23000
H2299       H  0.23048638  0.37836213  0.85026992     0.08100
C2300       C  0.22238866  0.37615665  0.91977024     0.04500
C2301       C  0.21666345  0.35647438  0.94173481    -0.20200
C2302       C  0.23623915  0.33467633  0.94903583    -0.12500
C2303       C  0.26216115  0.33248310  0.93313462     0.13200
C2304       C  0.26784975  0.35240811  0.91119470    -0.23000
C2305       C  0.20089823  0.39933779  0.91318006    -0.06000
H2306       H  0.19661335  0.35829897  0.95335979     0.14700
C2307       C  0.28436191  0.30985926  0.93934502    -0.16200
H2308       H  0.28783622  0.35127666  0.89939920     0.09000
H2309       H  0.22242208  0.43367049  0.80258215     0.06900
H2310       H  0.22441227  0.39536541  0.80408588     0.08100
H2311       H  0.25427587  0.41506470  0.78998029     0.07100
H2312       H  0.30252408  0.40141368  0.92343369     0.02000
H2313       H  0.27177287  0.42085235  0.93692298     0.02500
H2314       H  0.30219506  0.43989464  0.92281367     0.06000
H2315       H  0.18179182  0.39798122  0.92732082     0.05000
H2316       H  0.19350643  0.39727814  0.89070944    -0.00800
H2317       H  0.21090273  0.42072865  0.91621269     0.00700
H2318       H  0.27524607  0.28822027  0.93543076     0.04300
H2319       H  0.29163541  0.31165951  0.96188763     0.06300
H2320       H  0.30352219  0.31215760  0.92539713     0.07100
C2321       C  0.24250959  0.41587088  0.14432309    -0.22500
C2322       C  0.25873363  0.39062275  0.14348814     0.09500
C2323       C  0.28213196  0.38725823  0.16226306     0.09900
C2324       C  0.28918102  0.40962990  0.18103952    -0.17400
C2325       C  0.27331345  0.43524539  0.18155742    -0.27800
C2326       C  0.24940142  0.43824982  0.16314207     0.18200
C2327       C  0.25173836  0.36893982  0.12143310     0.12200
C2328       C  0.29962776  0.36012243  0.16249645    -0.12200
H2329       H  0.30745238  0.40725404  0.19516891     0.12500
C2330       C  0.23191476  0.46540896  0.16205580    -0.23000
H2331       H  0.22473897  0.41832231  0.12957061     0.08100
C2332       C  0.22672879  0.35204028  0.12315970     0.04500
C2333       C  0.21966292  0.33391616  0.10030570    -0.20200
C2334       C  0.23713539  0.33207008  0.07582755    -0.12500
C2335       C  0.26275870  0.34837674  0.07459400     0.13200
C2336       C  0.26956931  0.36674576  0.09738069    -0.23000
C2337       C  0.20759020  0.35302422  0.14913727    -0.06000
H2338       H  0.20023323  0.32118029  0.10151614     0.14700
C2339       C  0.28244433  0.34755137  0.04899188    -0.16200
H2340       H  0.28864324  0.38001517  0.09620974     0.09000
H2341       H  0.22107064  0.46891513  0.18290626     0.06900
H2342       H  0.21501877  0.46438531  0.14536042     0.08100
H2343       H  0.24601215  0.48395712  0.15705623     0.07100
H2344       H  0.31006538  0.35695634  0.14139319     0.02000
H2345       H  0.28550272  0.34152451  0.16717130     0.02500
H2346       H  0.31672067  0.36080661  0.17901497     0.06000
H2347       H  0.18936884  0.33778962  0.14730602     0.05000
H2348       H  0.19861660  0.37487210  0.15184848    -0.00800
H2349       H  0.22012410  0.34722153  0.16846963     0.00700
H2350       H  0.27042643  0.35347228  0.02936509     0.04300
H2351       H  0.29164756  0.32575290  0.04655483     0.06300
H2352       H  0.30063218  0.36276522  0.05125910     0.07100
C2353       C  0.10352464  0.23383588  0.11135972    -0.22500
C2354       C  0.10431265  0.25689318  0.13050165     0.09500
C2355       C  0.11989256  0.28182276  0.12341406     0.09900
C2356       C  0.13422198  0.28317496  0.09697220    -0.17400
C2357       C  0.13393335  0.25983314  0.07793324    -0.27800
C2358       C  0.11832488  0.23482142  0.08526692     0.18200
C2359       C  0.08817414  0.25400663  0.15760755     0.12200
C2360       C  0.12194731  0.30657581  0.14398932    -0.12200
H2361       H  0.14653319  0.30216788  0.09156062     0.12500
C2362       C  0.11662616  0.20929168  0.06554942    -0.23000
H2363       H  0.09135161  0.21484592  0.11704635     0.08100
C2364       C  0.05912114  0.26218725  0.15930798     0.04500
C2365       C  0.04314162  0.25464872  0.18356866    -0.20200
C2366       C  0.05542188  0.23874161  0.20583037    -0.12500
C2367       C  0.08466600  0.23109049  0.20453431     0.13200
C2368       C  0.10081242  0.23908581  0.18043343    -0.23000
C2369       C  0.04457577  0.27745557  0.13489141    -0.06000
H2370       H  0.02051813  0.25990340  0.18454076     0.14700
C2371       C  0.09896408  0.21329315  0.22737157    -0.16200
H2372       H  0.12301446  0.23241019  0.17877870     0.09000
H2373       H  0.10173702  0.19264958  0.07386698     0.06900
H2374       H  0.13802158  0.19916347  0.06336228     0.08100
H2375       H  0.10875886  0.21614908  0.04420332     0.07100
H2376       H  0.13190572  0.29923543  0.16427166     0.02000
H2377       H  0.10028983  0.31517443  0.14865308     0.02500
H2378       H  0.13520859  0.32430336  0.13517305     0.06000
H2379       H  0.02166663  0.28187477  0.13965551     0.05000
H2380       H  0.04557012  0.26403556  0.11530876    -0.00800
H2381       H  0.05535370  0.29823262  0.13066862     0.00700
H2382       H  0.10678102  0.19290644  0.21789014     0.04300
H2383       H  0.08441552  0.20787441  0.24536710     0.06300
H2384       H  0.11749536  0.22526955  0.23625513     0.07100
C2385       C  0.12326315  0.28101952  0.89586221    -0.22500
C2386       C  0.10514040  0.25734290  0.89267230     0.09500
C2387       C  0.09976538  0.23923717  0.91625217     0.09900
C2388       C  0.11371375  0.24454855  0.94225530    -0.17400
C2389       C  0.13292842  0.26760387  0.94537965    -0.27800
C2390       C  0.13721300  0.28653070  0.92188651     0.18200
C2391       C  0.09236682  0.25147393  0.86430025     0.12200
C2392       C  0.07931995  0.21429377  0.91396276    -0.12200
H2393       H  0.11000602  0.23013584  0.96012205     0.12500
C2394       C  0.15723366  0.31188178  0.92336942    -0.23000
H2395       H  0.12701625  0.29488515  0.87757792     0.08100
C2396       C  0.06905870  0.26758783  0.85391477     0.04500
C2397       C  0.05603354  0.25949270  0.82816794    -0.20200
C2398       C  0.06508914  0.23505282  0.81310525    -0.12500
C2399       C  0.08946195  0.21976231  0.82280392     0.13200
C2400       C  0.10301582  0.22849216  0.84815004    -0.23000
C2401       C  0.05698771  0.29236633  0.87071152    -0.06000
H2402       H  0.03736294  0.27123235  0.82082085     0.14700
C2403       C  0.10127892  0.19428350  0.80674864    -0.16200
H2404       H  0.12133275  0.21660553  0.85611360     0.09000
H2405       H  0.15809470  0.32385213  0.90282681     0.06900
H2406       H  0.17929538  0.30446576  0.92822134     0.08100
H2407       H  0.14981297  0.32707717  0.94008020     0.07100
H2408       H  0.08722511  0.19873546  0.89783876     0.02000
H2409       H  0.05782261  0.22213645  0.90747334     0.02500
H2410       H  0.07701950  0.20276921  0.93465184     0.06000
H2411       H  0.03813814  0.30205568  0.85989845     0.05000
H2412       H  0.07352325  0.30929050  0.87318336    -0.00800
H2413       H  0.05006161  0.28485955  0.89218792     0.00700
H2414       H  0.12173096  0.18663109  0.81620484     0.04300
H2415       H  0.10551293  0.20027301  0.78413680     0.06300
H2416       H  0.08599217  0.17607617  0.80751047     0.07100
C2417       C  0.23436674  0.16676816  0.91156161    -0.22500
C2418       C  0.25621926  0.14924581  0.92237749     0.09500
C2419       C  0.27175088  0.15798514  0.94668385     0.09900
C2420       C  0.26391147  0.18334127  0.96073770    -0.17400
C2421       C  0.24074927  0.20000528  0.95109896    -0.27800
C2422       C  0.22662651  0.19230000  0.92542050     0.18200
C2423       C  0.26151719  0.12116771  0.90869710     0.12200
C2424       C  0.29583171  0.13997780  0.95837906    -0.12200
H2425       H  0.27479642  0.18918997  0.98034912     0.12500
C2426       C  0.20362369  0.21051087  0.91189194    -0.23000
H2427       H  0.22298685  0.16022750  0.89245525     0.08100
C2428       C  0.24545683  0.09675711  0.91646166     0.04500
C2429       C  0.25030535  0.07076221  0.90220124    -0.20200
C2430       C  0.27091897  0.06855427  0.88033664    -0.12500
C2431       C  0.28739947  0.09314254  0.87295753     0.13200
C2432       C  0.28245482  0.11909829  0.88736186    -0.23000
C2433       C  0.22301944  0.09826975  0.93963850    -0.06000
H2434       H  0.23762158  0.05214791  0.90791939     0.14700
C2435       C  0.30930322  0.09279812  0.84915819    -0.16200
H2436       H  0.29461922  0.13807360  0.88165343     0.09000
H2437       H  0.18290386  0.19879218  0.91220907     0.06900
H2438       H  0.20952904  0.21513569  0.88932661     0.08100
H2439       H  0.20080078  0.23150550  0.92261403     0.07100
H2440       H  0.31283374  0.13763582  0.94190634     0.02000
H2441       H  0.28766137  0.11841766  0.96433247     0.02500
H2442       H  0.30558307  0.14981128  0.97769782     0.06000
H2443       H  0.21245354  0.07720844  0.94314227     0.05000
H2444       H  0.20626079  0.11404308  0.93364154    -0.00800
H2445       H  0.23306902  0.10499572  0.96008613     0.00700
H2446       H  0.29897387  0.08625370  0.82878234     0.04300
H2447       H  0.32692213  0.07774227  0.85448017     0.06300
H2448       H  0.31909164  0.11424594  0.84572314     0.07100
C2449       C  0.58761956  0.86501834  0.25090868    -0.22500
C2450       C  0.61245798  0.86601567  0.26763046     0.09500
C2451       C  0.61549155  0.84743852  0.29118557     0.09900
C2452       C  0.59304552  0.82868450  0.29805453    -0.17400
C2453       C  0.56763166  0.82823033  0.28192271    -0.27800
C2454       C  0.56504798  0.84637782  0.25772187     0.18200
C2455       C  0.63388684  0.88837488  0.26125725     0.12200
C2456       C  0.64223551  0.84768916  0.30919813    -0.12200
H2457       H  0.59514918  0.81464929  0.31643127     0.12500
C2458       C  0.53817575  0.84742601  0.23983750    -0.23000
H2459       H  0.58559947  0.87958598  0.23292020     0.08100
C2460       C  0.65403321  0.88512776  0.23902614     0.04500
C2461       C  0.67216134  0.90811848  0.23224001    -0.20200
C2462       C  0.67042253  0.93419300  0.24714414    -0.12500
C2463       C  0.65054718  0.93719481  0.26979438     0.13200
C2464       C  0.63252780  0.91412299  0.27659767    -0.23000
C2465       C  0.65615266  0.85755691  0.22239356    -0.06000
H2466       H  0.68761493  0.90585462  0.21500554     0.14700
C2467       C  0.64719780  0.96505751  0.28579831    -0.16200
H2468       H  0.61667811  0.91638228  0.29350133     0.09000
H2469       H  0.53957604  0.86396886  0.22278002     0.06900
H2470       H  0.51945335  0.85270076  0.25355910     0.08100
H2471       H  0.53469406  0.82644673  0.22920037     0.07100
H2472       H  0.64514456  0.86914692  0.31903999     0.02000
H2473       H  0.66112158  0.84272160  0.29560762     0.02500
H2474       H  0.64120361  0.83155754  0.32667392     0.06000
H2475       H  0.67326085  0.85856884  0.20585893     0.05000
H2476       H  0.63551662  0.85311805  0.21146042    -0.00800
H2477       H  0.66113920  0.83960108  0.23717585     0.00700
H2478       H  0.64214451  0.98262757  0.27056626     0.04300
H2479       H  0.66727804  0.97021236  0.29740031     0.06300
H2480       H  0.62961546  0.96393926  0.30181977     0.07100
C2481       C  0.60880388  0.15384084  0.26773588    -0.22500
C2482       C  0.60406969  0.12474727  0.27362257     0.09500
C2483       C  0.57824192  0.11609400  0.28667186     0.09900
C2484       C  0.55740189  0.13670243  0.29313828    -0.17400
C2485       C  0.56169524  0.16590690  0.28690084    -0.27800
C2486       C  0.58798957  0.17464020  0.27431560     0.18200
C2487       C  0.62579818  0.10333710  0.26486904     0.12200
C2488       C  0.57258557  0.08502350  0.29353629    -0.12200
H2489       H  0.53748436  0.12985010  0.30291317     0.12500
C2490       C  0.59472219  0.20573963  0.26852790    -0.23000
H2491       H  0.62881733  0.16021070  0.25781375     0.08100
C2492       C  0.62561260  0.09160207  0.23713041     0.04500
C2493       C  0.64503493  0.06979079  0.23024232    -0.20200
C2494       C  0.66516652  0.05962853  0.25022272    -0.12500
C2495       C  0.66551867  0.07179975  0.27807042     0.13200
C2496       C  0.64570391  0.09345063  0.28499528    -0.23000
C2497       C  0.60465626  0.10192284  0.21488683    -0.06000
H2498       H  0.64446513  0.06066073  0.20890801     0.14700
C2499       C  0.68588801  0.06161847  0.30091925    -0.16200
H2500       H  0.64543449  0.10253071  0.30637925     0.09000
H2501       H  0.61686541  0.20860843  0.26025206     0.06900
H2502       H  0.59278000  0.21830408  0.28862557     0.08100
H2503       H  0.57982884  0.21442709  0.25219301     0.07100
H2504       H  0.58909970  0.07701050  0.30863348     0.02000
H2505       H  0.57331569  0.07208787  0.27361938     0.02500
H2506       H  0.55123092  0.08190383  0.30360060     0.06000
H2507       H  0.60732434  0.09040033  0.19425851     0.05000
H2508       H  0.60801828  0.12514524  0.21085543    -0.00800
H2509       H  0.58238416  0.09841455  0.22251157     0.00700
H2510       H  0.68197569  0.07252332  0.32168850     0.04300
H2511       H  0.70831640  0.06633192  0.29452311     0.06300
H2512       H  0.68315032  0.03821073  0.30434838     0.07100
C2513       C  0.72305419  0.11902038  0.13833870    -0.22500
C2514       C  0.74151040  0.11953756  0.11466886     0.09500
C2515       C  0.75328795  0.09362289  0.10444624     0.09900
C2516       C  0.74732966  0.06791625  0.11889617    -0.17400
C2517       C  0.72966131  0.06734543  0.14325858    -0.27800
C2518       C  0.71688918  0.09325871  0.15277337     0.18200
C2519       C  0.74926102  0.14748351  0.10148829     0.12200
C2520       C  0.77225877  0.09309167  0.07832651    -0.12200
H2521       H  0.75704425  0.04818554  0.11145827     0.12500
C2522       C  0.69782641  0.09427856  0.17880136    -0.23000
H2523       H  0.71404771  0.13901014  0.14597029     0.08100
C2524       C  0.73030314  0.16231215  0.08331795     0.04500
C2525       C  0.73964636  0.18744444  0.06959376    -0.20200
C2526       C  0.76817112  0.19707394  0.07193562    -0.12500
C2527       C  0.78660098  0.18306788  0.09172692     0.13200
C2528       C  0.77667538  0.15870234  0.10645859    -0.23000
C2529       C  0.70074280  0.15083776  0.07723940    -0.06000
H2530       H  0.72490936  0.19864115  0.05572218     0.14700
C2531       C  0.81670070  0.19337345  0.09766471    -0.16200
H2532       H  0.79080923  0.14753414  0.12106830     0.09000
H2533       H  0.67841781  0.08108893  0.17498465     0.06900
H2534       H  0.69061561  0.11643798  0.18366370     0.08100
H2535       H  0.70954293  0.08606851  0.19778409     0.07100
H2536       H  0.79186959  0.10599270  0.08215741     0.02000
H2537       H  0.76049208  0.10208786  0.05974056     0.02500
H2538       H  0.77904003  0.07094817  0.07281636     0.06000
H2539       H  0.68896903  0.16460059  0.06182517     0.05000
H2540       H  0.68810719  0.14979505  0.09733741    -0.00800
H2541       H  0.70239523  0.12900849  0.06789030     0.00700
H2542       H  0.82662712  0.18150349  0.11571999     0.04300
H2543       H  0.81640161  0.21646524  0.10344437     0.06300
H2544       H  0.83059856  0.18994232  0.07870241     0.07100
C2545       C  0.74016041  0.85603959  0.06751656    -0.22500
C2546       C  0.74317702  0.85331242  0.09710530     0.09500
C2547       C  0.74944681  0.82620527  0.10909326     0.09900
C2548       C  0.75430336  0.80264813  0.09082352    -0.17400
C2549       C  0.75324657  0.80593609  0.06097768    -0.27800
C2550       C  0.74506307  0.83279570  0.04932557     0.18200
C2551       C  0.74144336  0.87982097  0.11446962     0.12200
C2552       C  0.75175837  0.82243145  0.14099191    -0.12200
H2553       H  0.76064195  0.78218137  0.09975239     0.12500
C2554       C  0.74175521  0.83794606  0.01770882    -0.23000
H2555       H  0.73490227  0.87676820  0.05846338     0.08100
C2556       C  0.76611207  0.89634779  0.12008141     0.04500
C2557       C  0.76338075  0.92241552  0.13476239    -0.20200
C2558       C  0.73646061  0.93296203  0.14338273    -0.12500
C2559       C  0.71157791  0.91657918  0.13688776     0.13200
C2560       C  0.71452031  0.89016254  0.12266930    -0.23000
C2561       C  0.79527925  0.88674718  0.11001268    -0.06000
H2562       H  0.78255287  0.93481398  0.13930122     0.14700
C2563       C  0.68187220  0.92626874  0.14503396    -0.16200
H2564       H  0.69563538  0.87755315  0.11755329     0.09000
H2565       H  0.75768906  0.85406747  0.01039578     0.06900
H2566       H  0.71985633  0.84606108  0.01317555     0.08100
H2567       H  0.74470629  0.81818283  0.00517560     0.07100
H2568       H  0.73111840  0.82834734  0.15124446     0.02000
H2569       H  0.76899303  0.83637481  0.14958969     0.02500
H2570       H  0.75679891  0.79990503  0.14682668     0.06000
H2571       H  0.81228509  0.90230955  0.11599804     0.05000
H2572       H  0.79531765  0.88463137  0.08634987    -0.00800
H2573       H  0.80072783  0.86573740  0.11970201     0.00700
H2574       H  0.67677211  0.94680671  0.13418771     0.04300
H2575       H  0.68038415  0.92892349  0.16851615     0.06300
H2576       H  0.66527486  0.91043575  0.13862515     0.07100
C2577       C  0.90168904  0.90408841  0.23945044    -0.22500
C2578       C  0.88571936  0.90682488  0.26468929     0.09500
C2579       C  0.89620568  0.89511372  0.29039290     0.09900
C2580       C  0.92253609  0.88059917  0.29023808    -0.17400
C2581       C  0.93823632  0.87690740  0.26478631    -0.27800
C2582       C  0.92770971  0.88904121  0.23902668     0.18200
C2583       C  0.85780098  0.92169145  0.26324184     0.12200
C2584       C  0.87927749  0.89735997  0.31775442    -0.12200
H2585       H  0.93033463  0.87110557  0.30992338     0.12500
C2586       C  0.94372368  0.88657560  0.21107387    -0.23000
H2587       H  0.89340978  0.91337980  0.21986785     0.08100
C2588       C  0.85594628  0.95165679  0.26651939     0.04500
C2589       C  0.82979428  0.96530657  0.26119826    -0.20200
C2590       C  0.80562095  0.94977135  0.25227847    -0.12500
C2591       C  0.80716074  0.91963333  0.24992465     0.13200
C2592       C  0.83331771  0.90590369  0.25568246    -0.23000
C2593       C  0.88180792  0.96938542  0.27432082    -0.06000
H2594       H  0.82858351  0.98844579  0.26247074     0.14700
C2595       C  0.78234059  0.90162688  0.23980948    -0.16200
H2596       H  0.83498953  0.88287192  0.25299447     0.09000
H2597       H  0.93334661  0.89926169  0.19384218     0.06900
H2598       H  0.94416401  0.86391949  0.20386390     0.08100
H2599       H  0.96595188  0.89467694  0.21368976     0.07100
H2600       H  0.85809389  0.88686237  0.31500237     0.02000
H2601       H  0.87596885  0.92022610  0.32337563     0.02500
H2602       H  0.89044977  0.88678857  0.33588518     0.06000
H2603       H  0.87654667  0.99257362  0.27574030     0.05000
H2604       H  0.89875375  0.96668938  0.25784737    -0.00800
H2605       H  0.89026755  0.96244732  0.29538726     0.00700
H2606       H  0.78840025  0.89034491  0.21977674     0.04300
H2607       H  0.76280901  0.91439387  0.23545462     0.06300
H2608       H  0.77695715  0.88543729  0.25640146     0.07100
C2609       C  0.88237988  0.12507791  0.28716821    -0.22500
C2610       C  0.87995892  0.10270985  0.26742253     0.09500
C2611       C  0.90435882  0.09332220  0.25227830     0.09900
C2612       C  0.93076743  0.10694454  0.25689422    -0.17400
C2613       C  0.93335854  0.12977738  0.27634058    -0.27800
C2614       C  0.90871569  0.13891727  0.29177674     0.18200
C2615       C  0.85151800  0.08975199  0.26222380     0.12200
C2616       C  0.90239725  0.06908594  0.23105271    -0.12200
H2617       H  0.94939426  0.09999657  0.24492820     0.12500
C2618       C  0.90940820  0.16411328  0.31202175    -0.23000
H2619       H  0.86341136  0.13208460  0.29854439     0.08100
C2620       C  0.84135052  0.06686368  0.27907470     0.04500
C2621       C  0.81596317  0.05294058  0.27114176    -0.20200
C2622       C  0.80086383  0.06100490  0.24636101    -0.12500
C2623       C  0.81008503  0.08531237  0.23064372     0.13200
C2624       C  0.83532530  0.09944999  0.23891874    -0.23000
C2625       C  0.85788033  0.05647733  0.30473624    -0.06000
H2626       H  0.80885912  0.03455818  0.28346472     0.14700
C2627       C  0.79355671  0.09653768  0.20526908    -0.16200
H2628       H  0.84314042  0.11749164  0.22648549     0.09000
H2629       H  0.92380492  0.15945090  0.33032423     0.06900
H2630       H  0.88787843  0.16891750  0.32096483     0.08100
H2631       H  0.91695624  0.18357291  0.30053852     0.07100
H2632       H  0.88722952  0.07482642  0.21368599     0.02000
H2633       H  0.89466739  0.04937983  0.24196635     0.02500
H2634       H  0.92350523  0.06430449  0.22115255     0.06000
H2635       H  0.84705257  0.03811924  0.31539021     0.05000
H2636       H  0.85994055  0.07410655  0.32055417    -0.00800
H2637       H  0.87958609  0.04939488  0.29804394     0.00700
H2638       H  0.77086181  0.10026815  0.21142274     0.04300
H2639       H  0.79453400  0.08112056  0.18724302     0.06300
H2640       H  0.80250367  0.11716609  0.19739405     0.07100
C2641       C  0.38606904  0.91703716  0.23908702    -0.22500
C2642       C  0.38030978  0.90199264  0.26428582     0.09500
C2643       C  0.35549430  0.90832623  0.28021653     0.09900
C2644       C  0.33620143  0.92893786  0.26981878    -0.17400
C2645       C  0.34149977  0.94393059  0.24414188    -0.27800
C2646       C  0.36732026  0.93814872  0.22886365     0.18200
C2647       C  0.40100063  0.87981344  0.27337789     0.12200
C2648       C  0.34956434  0.89347459  0.30823456    -0.12200
H2649       H  0.31697338  0.93346402  0.28202413     0.12500
C2650       C  0.37584109  0.95388348  0.20190824    -0.23000
H2651       H  0.40554546  0.91217436  0.22737751     0.08100
C2652       C  0.39881283  0.85133510  0.26363246     0.04500
C2653       C  0.42037126  0.83159714  0.27067488    -0.20200
C2654       C  0.44427572  0.83969763  0.28715061    -0.12500
C2655       C  0.44611793  0.86851254  0.29716938     0.13200
C2656       C  0.42442192  0.88806829  0.29003656    -0.23000
C2657       C  0.37387724  0.84193910  0.24545366    -0.06000
H2658       H  0.41849595  0.80971660  0.26316463     0.14700
C2659       C  0.47092767  0.87939911  0.31480224    -0.16200
H2660       H  0.42588471  0.91016375  0.29711321     0.09000
H2661       H  0.39654471  0.94605667  0.19314408     0.06900
H2662       H  0.37851952  0.97707609  0.20651889     0.08100
H2663       H  0.35945935  0.95078149  0.18504276     0.07100
H2664       H  0.36728621  0.89788579  0.32345473     0.02000
H2665       H  0.34788920  0.86999250  0.30483537     0.02500
H2666       H  0.32924932  0.90100916  0.31809267     0.06000
H2667       H  0.37538455  0.81891816  0.23960590     0.05000
H2668       H  0.37334911  0.85469651  0.22539476    -0.00800
H2669       H  0.35351473  0.84521631  0.25731007     0.00700
H2670       H  0.46907963  0.90269343  0.31938878     0.04300
H2671       H  0.49136727  0.87606694  0.30306797     0.06300
H2672       H  0.47151036  0.86816160  0.33573948     0.07100
C2673       C  0.36226539  0.08896837  0.28027178    -0.22500
C2674       C  0.37230922  0.10897559  0.26028720     0.09500
C2675       C  0.36219720  0.10802866  0.23193307     0.09900
C2676       C  0.34247878  0.08673997  0.22404868    -0.17400
C2677       C  0.33281212  0.06594308  0.24373440    -0.27800
C2678       C  0.34272596  0.06738823  0.27246481     0.18200
C2679       C  0.39462667  0.12973438  0.26921813     0.12200
C2680       C  0.37241009  0.12937638  0.20995349    -0.12200
H2681       H  0.33498373  0.08610594  0.20211902     0.12500
C2682       C  0.33383551  0.04593414  0.29494896    -0.23000
H2683       H  0.37034264  0.08989905  0.30198063     0.08100
C2684       C  0.38783485  0.15469422  0.28486290     0.04500
C2685       C  0.41001162  0.17306348  0.29366265    -0.20200
C2686       C  0.43867552  0.16715736  0.28674152    -0.12500
C2687       C  0.44544545  0.14213161  0.27102006     0.13200
C2688       C  0.42326827  0.12377513  0.26243799    -0.23000
C2689       C  0.35721734  0.16203901  0.29191758    -0.06000
H2690       H  0.40497728  0.19225824  0.30576441     0.14700
C2691       C  0.47575702  0.13349245  0.26377027    -0.16200
H2692       H  0.42837340  0.10441812  0.25064459     0.09000
H2693       H  0.31033337  0.04710924  0.29847091     0.06900
H2694       H  0.34435924  0.05014644  0.31583505     0.08100
H2695       H  0.33998165  0.02397236  0.28813717     0.07100
H2696       H  0.39594302  0.12740392  0.20703769     0.02000
H2697       H  0.36724994  0.15145017  0.21717139     0.02500
H2698       H  0.36208044  0.12587801  0.18884095     0.06000
H2699       H  0.35562507  0.18254255  0.30389636     0.05000
H2700       H  0.34762759  0.14484911  0.30528849    -0.00800
H2701       H  0.34469358  0.16420562  0.27183916     0.00700
H2702       H  0.48027762  0.11201563  0.27298423     0.04300
H2703       H  0.49212236  0.14841933  0.27220376     0.06300
H2704       H  0.47828382  0.13239108  0.24017421     0.07100
C2705       C  0.27598553  0.88191112  0.13857554    -0.22500
C2706       C  0.25683218  0.88020750  0.11563779     0.09500
C2707       C  0.24379192  0.90535529  0.10514098     0.09900
C2708       C  0.25059930  0.93187690  0.11755809    -0.17400
C2709       C  0.26986412  0.93386962  0.14058189    -0.27800
C2710       C  0.28237321  0.90834723  0.15152133     0.18200
C2711       C  0.25084601  0.85194060  0.10251496     0.12200
C2712       C  0.22240094  0.90409760  0.08104696    -0.12200
H2713       H  0.24040232  0.95111481  0.10955033     0.12500
C2714       C  0.30120241  0.90838236  0.17770696    -0.23000
H2715       H  0.28558653  0.86239507  0.14661954     0.08100
C2716       C  0.26757908  0.84169562  0.07960947     0.04500
C2717       C  0.25930554  0.81651396  0.06553505    -0.20200
C2718       C  0.23427314  0.80159519  0.07338448    -0.12500
C2719       C  0.21835952  0.81107061  0.09745915     0.13200
C2720       C  0.22703010  0.83611101  0.11183914    -0.23000
C2721       C  0.29354761  0.85796607  0.06932551    -0.06000
H2722       H  0.27158390  0.80946589  0.04712860     0.14700
C2723       C  0.19235264  0.79504799  0.10814527    -0.16200
H2724       H  0.21456170  0.84403873  0.12976053     0.09000
H2725       H  0.30765944  0.88636787  0.18404997     0.06900
H2726       H  0.28952488  0.91807112  0.19603841     0.08100
H2727       H  0.32104390  0.92065802  0.17330717     0.07100
H2728       H  0.20391306  0.89049228  0.08741915     0.02000
H2729       H  0.23260797  0.89483885  0.06168476     0.02500
H2730       H  0.21410880  0.92569851  0.07547364     0.06000
H2731       H  0.30412639  0.84707617  0.05100943     0.05000
H2732       H  0.30936724  0.85979502  0.08694946    -0.00800
H2733       H  0.28717743  0.87977931  0.06226381     0.00700
H2734       H  0.18413224  0.80424529  0.12848199     0.04300
H2735       H  0.19795795  0.77225792  0.11214101     0.06300
H2736       H  0.17472741  0.79626256  0.09229598     0.07100
C2737       C  0.27801964  0.16774182  0.08914667    -0.22500
C2738       C  0.25605541  0.15230099  0.10272648     0.09500
C2739       C  0.22751239  0.16195465  0.10068801     0.09900
C2740       C  0.22139848  0.18600790  0.08392217    -0.17400
C2741       C  0.24298972  0.20048503  0.06871363    -0.27800
C2742       C  0.27188324  0.19163824  0.07183793     0.18200
C2743       C  0.26262978  0.12469203  0.11691937     0.12200
C2744       C  0.20326283  0.14606165  0.11502807    -0.12200
H2745       H  0.19928497  0.19282907  0.08157867     0.12500
C2746       C  0.29656322  0.20531410  0.05605125    -0.23000
H2747       H  0.29993614  0.16021724  0.09091674     0.08100
C2748       C  0.26654515  0.09934359  0.10082587     0.04500
C2749       C  0.26863513  0.07292203  0.11509144    -0.20200
C2750       C  0.26628874  0.07137615  0.14493020    -0.12500
C2751       C  0.26355188  0.09689608  0.16110871     0.13200
C2752       C  0.26182150  0.12326160  0.14683355    -0.23000
C2753       C  0.26733164  0.10007266  0.06860007    -0.06000
H2754       H  0.27096816  0.05329193  0.10288220     0.14700
C2755       C  0.26250908  0.09721212  0.19339344    -0.16200
H2756       H  0.25896448  0.14279799  0.15908225     0.09000
H2757       H  0.30741285  0.18892123  0.04266017     0.06900
H2758       H  0.31221032  0.21391411  0.07175152     0.08100
H2759       H  0.29015369  0.22300630  0.04172406     0.07100
H2760       H  0.20639345  0.14606572  0.13855925     0.02000
H2761       H  0.20255299  0.12359800  0.10720256     0.02500
H2762       H  0.18217276  0.15611679  0.11049769     0.06000
H2763       H  0.26988949  0.07828278  0.05937118     0.05000
H2764       H  0.28564145  0.11339238  0.06124981    -0.00800
H2765       H  0.24706104  0.10931583  0.06027489     0.00700
H2766       H  0.28022542  0.11076211  0.20169644     0.04300
H2767       H  0.26483366  0.07569394  0.20314260     0.06300
H2768       H  0.24177467  0.10640619  0.20058290     0.07100
C2769       C  0.16869133  0.89795407  0.22641382    -0.22500
C2770       C  0.15647006  0.90186222  0.25350094     0.09500
C2771       C  0.17024516  0.91947780  0.27369156     0.09900
C2772       C  0.19499651  0.93448643  0.26565554    -0.17400
C2773       C  0.20554768  0.93333890  0.23744144    -0.27800
C2774       C  0.19296375  0.91362772  0.21790855     0.18200
C2775       C  0.12764356  0.88999243  0.25917938     0.12200
C2776       C  0.15783698  0.92378297  0.30315769    -0.12200
H2777       H  0.20467922  0.94897903  0.28092728     0.12500
C2778       C  0.20431679  0.90918803  0.18796021    -0.23000
H2779       H  0.15812445  0.88387724  0.21131418     0.08100
C2780       C  0.10297443  0.90360760  0.24824148     0.04500
C2781       C  0.07591574  0.89217072  0.25441148    -0.20200
C2782       C  0.07292499  0.86758140  0.27143341    -0.12500
C2783       C  0.09773207  0.85394716  0.28247314     0.13200
C2784       C  0.12483909  0.86545002  0.27621086    -0.23000
C2785       C  0.10520902  0.93029026  0.23014399    -0.06000
H2786       H  0.05694796  0.90233039  0.24565425     0.14700
C2787       C  0.09596800  0.82660536  0.29968509    -0.16200
H2788       H  0.14398586  0.85517266  0.28440702     0.09000
H2789       H  0.19355112  0.89094150  0.17711414     0.06900
H2790       H  0.22760754  0.90440989  0.18872217     0.08100
H2791       H  0.20040891  0.92847612  0.17462237     0.07100
H2792       H  0.15688186  0.90294368  0.31460468     0.02000
H2793       H  0.13587782  0.93279262  0.30144795     0.02500
H2794       H  0.17096151  0.93879123  0.31612362     0.06000
H2795       H  0.08377573  0.93848192  0.22384621     0.05000
H2796       H  0.11739535  0.92560489  0.21028303    -0.00800
H2797       H  0.11637172  0.94741252  0.24230515     0.00700
H2798       H  0.11754385  0.81825804  0.30524983     0.04300
H2799       H  0.08468596  0.80979488  0.28717893     0.06300
H2800       H  0.08430416  0.83053154  0.32001577     0.07100
C2801       C  0.14542709  0.05313792  0.26156724    -0.22500
C2802       C  0.14838378  0.08292313  0.26220969     0.09500
C2803       C  0.17574514  0.09544315  0.25878416     0.09900
C2804       C  0.19944801  0.07770257  0.25308718    -0.17400
C2805       C  0.19606818  0.04792556  0.25054086    -0.27800
C2806       C  0.16887180  0.03543624  0.25589043     0.18200
C2807       C  0.12196152  0.10023589  0.26438841     0.12200
C2808       C  0.17966325  0.12744167  0.26035866    -0.12200
H2809       H  0.22031927  0.08720672  0.24904683     0.12500
C2810       C  0.16367358  0.00354477  0.25561419    -0.23000
H2811       H  0.12436215  0.04363181  0.26467663     0.08100
C2812       C  0.10663056  0.10812061  0.23967008     0.04500
C2813       C  0.08042919  0.12248286  0.24254858    -0.20200
C2814       C  0.06887247  0.12900566  0.26963099    -0.12500
C2815       C  0.08446329  0.12091569  0.29449252     0.13200
C2816       C  0.11076805  0.10653893  0.29143488    -0.23000
C2817       C  0.11777351  0.10103960  0.21020980    -0.06000
H2818       H  0.06888083  0.12853573  0.22341787     0.14700
C2819       C  0.07420461  0.12776077  0.32430327    -0.16200
H2820       H  0.12267603  0.10000166  0.31023036     0.09000
H2821       H  0.14852563  0.99799522  0.23816265     0.06900
H2822       H  0.15425557  0.99676790  0.27639157     0.08100
H2823       H  0.18355809  0.99116957  0.25259555     0.07100
H2824       H  0.17271918  0.13525968  0.28169678     0.02000
H2825       H  0.16662847  0.13809663  0.24360272     0.02500
H2826       H  0.20242388  0.13369921  0.25712842     0.06000
H2827       H  0.10310800  0.10873129  0.19316227     0.05000
H2828       H  0.12005379  0.07745858  0.20791475    -0.00800
H2829       H  0.13897990  0.11130519  0.20684222     0.00700
H2830       H  0.05340078  0.11699091  0.32849119     0.04300
H2831       H  0.07195358  0.15128478  0.32682953     0.06300
H2832       H  0.08953006  0.12025694  0.34085682     0.07100
loop_ 
_geom_bond_atom_site_label_1 
_geom_bond_atom_site_label_2 
_geom_bond_distance 
_geom_bond_site_symmetry_2 
_ccdc_geom_bond_type 
O1           C16   1.260       .  A
O1           Al9   1.915   1_545  S
C2           O12   1.260       .  A
C2            O3   1.262       .  A
C2         C2709   1.486       .  S
O3           Al5   1.918       .  S
O4            C6   1.260       .  A
O4           Al5   1.881       .  S
Al5          O13   1.886   1_565  S
Al5          O15   1.896   1_565  S
Al5          O14   1.778   1_565  S
C6           O19   1.272       .  A
C6         C2773   1.488       .  S
O7           C17   1.261       .  A
O7           Al9   1.903       .  S
O8           C21   1.264       .  A
O8          Al18   1.887       .  S
Al9          O22   1.930   1_565  S
Al9          O19   1.936       .  S
Al9          O14   1.773   1_565  S
O10          C17   1.257       .  A
O10         Al18   1.900   1_565  S
O11          C20   1.266       .  A
O11         Al18   1.933       .  S
O12         Al18   1.902   1_565  S
O13          C20   1.260       .  A
O14         Al18   1.779       .  S
O15          C16   1.257       .  A
C16        C2805   1.473       .  S
C17        C2645   1.492       .  S
C20        C2750   1.469       .  S
C21          O22   1.268       .  A
C21        C2677   1.493       .  S
O23          C38   1.262       .  A
O23         Al31   1.914   1_565  S
C24          O34   1.258       .  A
C24          O25   1.262       .  A
C24        C2517   1.486       .  S
O25         Al27   1.916       .  S
O26          C28   1.262       .  A
O26         Al27   1.890       .  S
Al27         O35   1.887   1_545  S
Al27         O37   1.893   1_545  S
Al27         O36   1.776       .  S
C28          O41   1.266       .  A
C28        C2622   1.480       .  S
O29          C39   1.260       .  A
O29         Al31   1.899       .  S
O30          C43   1.258       .  A
O30         Al40   1.880       .  S
Al31         O44   1.920   1_545  S
Al31         O41   1.921       .  S
Al31         O36   1.783       .  S
O32          C39   1.263       .  A
O32         Al40   1.913   1_545  S
O33          C42   1.266       .  A
O33         Al40   1.935       .  S
O34         Al40   1.901   1_545  S
O35          C42   1.261       .  A
O36         Al40   1.778   1_545  S
O37          C38   1.258       .  A
C38        C2590   1.467       .  S
C39        C2494   1.490       .  S
C42        C2558   1.492       .  S
C43          O44   1.264       .  A
C43        C2462   1.472       .  S
O45          C60   1.263       .  A
O45         Al53   1.910       .  S
C46          O56   1.257       .  A
C46          O47   1.262       .  A
C46        C2389   1.488       .  S
O47         Al49   1.912   1_556  S
O48          C50   1.259       .  A
O48         Al49   1.887   1_556  S
Al49         O57   1.878       .  S
Al49         O59   1.901       .  S
Al49         O58   1.778       .  S
C50          O63   1.264       .  A
C50        C2421   1.476       .  S
O51          C61   1.262       .  A
O51         Al53   1.900   1_556  S
O52          C65   1.258       .  A
O52         Al62   1.884       .  S
Al53         O66   1.921       .  S
Al53         O63   1.922   1_554  S
Al53         O58   1.783       .  S
O54          C61   1.266       .  A
O54         Al62   1.920   1_556  S
O55          C64   1.265       .  A
O55         Al62   1.927       .  S
O56         Al62   1.888   1_556  S
O57          C64   1.256       .  A
O58         Al62   1.781       .  S
O59          C60   1.262       .  A
C60        C2741   1.475       .  S
C61        C2302   1.495       .  S
C64        C2357   1.479       .  S
C65          O66   1.263       .  A
C65        C2334   1.482       .  S
O67          C82   1.263       .  A
O67         Al75   1.914   1_556  S
C68          O78   1.258       .  A
C68          O69   1.262       .  A
C68        C2229   1.479       .  S
O69         Al71   1.913       .  S
O70          C72   1.262       .  A
O70         Al71   1.894       .  S
Al71         O79   1.889   1_554  S
Al71         O81   1.892   1_554  S
Al71         O80   1.775       .  S
C72          O85   1.268       .  A
C72        C2718   1.484       .  S
O73          C83   1.263       .  A
O73         Al75   1.906       .  S
O74          C87   1.260       .  A
O74         Al84   1.882   1_556  S
Al75         O88   1.927   1_554  S
Al75         O85   1.927       .  S
Al75         O80   1.777       .  S
O76          C83   1.259       .  A
O76         Al84   1.901       .  S
O77          C86   1.264       .  A
O77         Al84   1.928   1_556  S
O78         Al84   1.890       .  S
O79          C86   1.260       .  A
O80         Al84   1.778       .  S
O81          C82   1.259       .  A
C82        C2270   1.477       .  S
C83        C2142   1.491       .  S
C86        C2206   1.474       .  S
C87          O88   1.266       .  A
C87        C2165   1.478       .  S
O89         C104   1.262       .  A
O89         Al97   1.914   1_655  S
C90         O100   1.257       .  A
C90          O91   1.261       .  A
C90        C2069   1.478       .  S
O91         Al93   1.921       .  S
O92          C94   1.260       .  A
O92         Al93   1.882       .  S
Al93        O101   1.883   1_455  S
Al93        O103   1.897   1_455  S
Al93        O102   1.775       .  S
C94         O107   1.271       .  A
C94        C2398   1.478       .  S
O95         C105   1.261       .  A
O95         Al97   1.900       .  S
O96         C109   1.257       .  A
O96        Al106   1.872   1_655  S
Al97        O110   1.943   1_455  S
Al97        O107   1.937       .  S
Al97        O102   1.776       .  S
O98         C105   1.260       .  A
O98        Al106   1.910       .  S
O99         C108   1.267       .  A
O99        Al106   1.936   1_655  S
O100       Al106   1.884       .  S
O101        C108   1.259       .  A
O102       Al106   1.777       .  S
O103        C104   1.259       .  A
C104       C2101   1.472       .  S
C105       C2014   1.490       .  S
C108       C2046   1.473       .  S
C109        O110   1.270       .  A
C109       C1982   1.484       .  S
O111        C126   1.259       .  A
O111       Al119   1.900       .  S
C112        O122   1.256       .  A
C112        O113   1.263       .  A
C112       C2613   1.485       .  S
O113       Al115   1.923       .  S
O114        C116   1.261       .  A
O114       Al115   1.885       .  S
Al115       O123   1.882   1_655  S
Al115       O125   1.906   1_655  S
Al115       O124   1.780   1_655  S
C116        O129   1.266       .  A
C116       C1941   1.492       .  S
O117        C127   1.259       .  A
O117       Al119   1.897   1_655  S
O118        C131   1.258       .  A
O118       Al128   1.878       .  S
Al119       O132   1.932       .  S
Al119       O129   1.928   1_455  S
Al119       O124   1.779       .  S
O120        C127   1.263       .  A
O120       Al128   1.911   1_655  S
O121        C130   1.265       .  A
O121       Al128   1.930       .  S
O122       Al128   1.884   1_655  S
O123        C130   1.259       .  A
O124       Al128   1.780       .  S
O125        C126   1.260       .  A
C126       C2366   1.464       .  S
C127       C1877   1.492       .  S
C130       C2814   1.490       .  S
C131        O132   1.266       .  A
C131       C1918   1.477       .  S
O133        C148   1.264       .  A
O133       Al141   1.915   1_655  S
C134        O144   1.257       .  A
C134        O135   1.261       .  A
C134       C2782   1.475       .  S
O135       Al137   1.912       .  S
O136        C138   1.258       .  A
O136       Al137   1.878       .  S
Al137       O145   1.880   1_455  S
Al137       O147   1.891   1_455  S
Al137       O146   1.777       .  S
C138        O151   1.268       .  A
C138       C2238   1.479       .  S
O139        C149   1.264       .  A
O139       Al141   1.917       .  S
O140        C153   1.259       .  A
O140       Al150   1.879   1_655  S
Al141       O154   1.939   1_455  S
Al141       O151   1.930       .  S
Al141       O146   1.779       .  S
O142        C149   1.258       .  A
O142       Al150   1.903       .  S
O143        C152   1.266       .  A
O143       Al150   1.929   1_655  S
O144       Al150   1.889       .  S
O145        C152   1.257       .  A
O146       Al150   1.776       .  S
O147        C148   1.258       .  A
C148       C1854   1.469       .  S
C149       C1790   1.497       .  S
C152       C2581   1.482       .  S
C153        O154   1.270       .  A
C153       C1822   1.483       .  S
O155        C170   1.263       .  A
O155       Al163   1.927       .  S
C156        O166   1.259       .  A
C156        O157   1.261       .  A
C156       C1726   1.484       .  S
O157       Al159   1.918   1_556  S
O158        C160   1.260       .  A
O158       Al159   1.878   1_556  S
Al159       O167   1.885       .  S
Al159       O169   1.895       .  S
Al159       O168   1.775       .  S
C160        O173   1.272       .  A
C160       C1758   1.487       .  S
O161        C171   1.261       .  A
O161       Al163   1.907   1_556  S
O162        C175   1.260       .  A
O162       Al172   1.884       .  S
Al163       O176   1.944       .  S
Al163       O173   1.948   1_554  S
Al163       O168   1.778       .  S
O164        C171   1.257       .  A
O164       Al172   1.895   1_556  S
O165        C174   1.264       .  A
O165       Al172   1.927       .  S
O166       Al172   1.901   1_556  S
O167        C174   1.260       .  A
O168       Al172   1.779       .  S
O169        C170   1.258       .  A
C170       C2549   1.478       .  S
C171       C1653   1.476       .  S
C174       C1845   1.465       .  S
C175        O176   1.271       .  A
C175       C1694   1.491       .  S
O177        C192   1.264       .  A
O177       Al185   1.922   1_565  S
C178        O188   1.256       .  A
C178        O179   1.263       .  A
C178       C2430   1.485       .  S
O179       Al181   1.920       .  S
O180        C182   1.261       .  A
O180       Al181   1.886       .  S
Al181       O189   1.884   1_545  S
Al181       O191   1.900   1_545  S
Al181       O190   1.777       .  S
C182        O195   1.266       .  A
C182       C2078   1.481       .  S
O183        C193   1.264       .  A
O183       Al185   1.912       .  S
O184        C197   1.259       .  A
O184       Al194   1.884       .  S
Al185       O198   1.930   1_545  S
Al185       O195   1.927       .  S
Al185       O190   1.781       .  S
O186        C193   1.259       .  A
O186       Al194   1.900   1_545  S
O187        C196   1.263       .  A
O187       Al194   1.925       .  S
O188       Al194   1.886   1_545  S
O189        C196   1.259       .  A
O190       Al194   1.781   1_545  S
O191        C192   1.261       .  A
C192       C1621   1.484       .  S
C193       C1566   1.490       .  S
C196       C2261   1.468       .  S
C197        O198   1.267       .  A
C197       C1589   1.484       .  S
O199        C214   1.263       .  A
O199       Al207   1.926       .  S
C200        O210   1.257       .  A
C200        O201   1.258       .  A
C200       C1534   1.485       .  S
O201       Al203   1.909   1_655  S
O202        C204   1.265       .  A
O202       Al203   1.895   1_655  S
Al203       O211   1.886       .  S
Al203       O213   1.889       .  S
Al203       O212   1.779       .  S
C204        O217   1.269       .  A
C204       C1717   1.490       .  S
O205        C215   1.263       .  A
O205       Al207   1.915   1_655  S
O206        C219   1.257       .  A
O206       Al216   1.877       .  S
Al207       O220   1.930       .  S
Al207       O217   1.934   1_455  S
Al207       O212   1.778       .  S
O208        C215   1.262       .  A
O208       Al216   1.906   1_655  S
O209        C218   1.266       .  A
O209       Al216   1.935       .  S
O210       Al216   1.890   1_655  S
O211        C218   1.260       .  A
O212       Al216   1.784       .  S
O213        C214   1.257       .  A
C214       C2197   1.486       .  S
C215       C1470   1.500       .  S
C218       C1630   1.476       .  S
C219        O220   1.267       .  A
C219       C1502   1.475       .  S
O221        C236   1.262       .  A
O221       Al229   1.916   1_556  S
C222        O232   1.257       .  A
C222        O223   1.263       .  A
C222       C1950   1.474       .  S
O223       Al225   1.918       .  S
O224        C226   1.258       .  A
O224       Al225   1.886       .  S
Al225       O233   1.886   1_554  S
Al225       O235   1.904   1_554  S
Al225       O234   1.780       .  S
C226        O239   1.268       .  A
C226       C2526   1.494       .  S
O227        C237   1.260       .  A
O227       Al229   1.905       .  S
O228        C241   1.260       .  A
O228       Al238   1.879   1_556  S
Al229       O242   1.941   1_554  S
Al229       O239   1.936       .  S
Al229       O234   1.782       .  S
O230        C237   1.261       .  A
O230       Al238   1.910       .  S
O231        C240   1.265       .  A
O231       Al238   1.929   1_556  S
O232       Al238   1.885       .  S
O233        C240   1.258       .  A
O234       Al238   1.785       .  S
O235        C236   1.260       .  A
C236       C1438   1.474       .  S
C237       C1374   1.492       .  S
C240       C2110   1.485       .  S
C241        O242   1.270       .  A
C241       C1406   1.482       .  S
O243        C258   1.262       .  A
O243       Al251   1.915       .  S
C244        O254   1.254       .  A
C244        O245   1.259       .  A
C244       C1749   1.485       .  S
O245       Al247   1.912       .  S
O246        C248   1.262       .  A
O246       Al247   1.893       .  S
Al247       O255   1.881   1_565  S
Al247       O257   1.896   1_565  S
Al247       O256   1.791   1_565  S
C248        O261   1.263       .  A
C248       C1525   1.482       .  S
O249        C259   1.263       .  A
O249       Al251   1.914   1_565  S
O250        C263   1.254       .  A
O250       Al260   1.867       .  S
Al251       O264   1.923       .  S
Al251       O261   1.911   1_545  S
Al251       O256   1.791       .  S
O252        C259   1.260       .  A
O252       Al260   1.901   1_565  S
O253        C262   1.266       .  A
O253       Al260   1.932       .  S
O254       Al260   1.888   1_565  S
O255        C262   1.257       .  A
O256       Al260   1.787       .  S
O257        C258   1.258       .  A
C258       C2037   1.479       .  S
C259       C1301   1.485       .  S
C262       C1429   1.482       .  S
C263        O264   1.262       .  A
C263       C1333   1.474       .  S
O265        C280   1.263       .  A
O265       Al273   1.911       .  S
C266        O276   1.258       .  A
C266        O267   1.261       .  A
C266       C1173   1.475       .  S
O267       Al269   1.914       .  S
O268        C270   1.261       .  A
O268       Al269   1.886       .  S
Al269       O277   1.877       .  S
Al269       O279   1.898       .  S
Al269       O278   1.780       .  S
C270        O283   1.263       .  A
C270       C1237   1.486       .  S
O271        C281   1.261       .  A
O271       Al273   1.899       .  S
O272        C285   1.259       .  A
O272       Al282   1.892       .  S
Al273       O286   1.922       .  S
Al273       O283   1.918       .  S
Al273       O278   1.779       .  S
O274        C281   1.263       .  A
O274       Al282   1.911       .  S
O275        C284   1.264       .  A
O275       Al282   1.921       .  S
O276       Al282   1.892       .  S
O277        C284   1.257       .  A
O278       Al282   1.779       .  S
O279        C280   1.260       .  A
C280       C1278   1.466       .  S
C281       C2485   1.485       .  S
C284       C1205   1.468       .  S
C285        O286   1.264       .  A
C285       C2686   1.471       .  S
O287        C302   1.261       .  A
O287       Al295   1.909       .  S
C288        O298   1.258       .  A
C288        O289   1.261       .  A
C288       C1086   1.475       .  S
O289       Al291   1.914       .  S
O290        C292   1.258       .  A
O290       Al291   1.882       .  S
Al291       O299   1.879       .  S
Al291       O301   1.899       .  S
Al291       O300   1.775       .  S
C292        O305   1.269       .  A
C292       C1118   1.489       .  S
O293        C303   1.262       .  A
O293       Al295   1.898       .  S
O294        C307   1.261       .  A
O294       Al304   1.884       .  S
Al295       O308   1.929       .  S
Al295       O305   1.932       .  S
Al295       O300   1.772       .  S
O296        C303   1.260       .  A
O296       Al304   1.907       .  S
O297        C306   1.267       .  A
O297       Al304   1.928       .  S
O298       Al304   1.894       .  S
O299        C306   1.258       .  A
O300       Al304   1.775       .  S
O301        C302   1.259       .  A
C302       C1150   1.465       .  S
C303       C2133   1.491       .  S
C306       C1269   1.476       .  S
C307        O308   1.267       .  A
C307       C2325   1.480       .  S
O309        C324   1.262       .  A
O309       Al317   1.905       .  S
C310        O320   1.255       .  A
C310        O311   1.263       .  A
C310       C1013   1.484       .  S
O311       Al313   1.918       .  S
O312        C314   1.260       .  A
O312       Al313   1.883       .  S
Al313       O321   1.878       .  S
Al313       O323   1.898       .  S
Al313       O322   1.776       .  S
C314        O327   1.265       .  A
C314       C1054   1.492       .  S
O315        C325   1.263       .  A
O315       Al317   1.902       .  S
O316        C329   1.256       .  A
O316       Al326   1.876       .  S
Al317       O330   1.937       .  S
Al317       O327   1.930       .  S
Al317       O322   1.783       .  S
O318        C325   1.260       .  A
O318       Al326   1.904       .  S
O319        C328   1.261       .  A
O319       Al326   1.918       .  S
O320       Al326   1.879       .  S
O321        C328   1.257       .  A
O322       Al326   1.779       .  S
O323        C324   1.260       .  A
C324       C1214   1.463       .  S
C325       C2005   1.490       .  S
C328       C1141   1.480       .  S
C329        O330   1.267       .  A
C329       C1909   1.478       .  S
O331        C346   1.264       .  A
O331       Al339   1.917       .  S
C332        O342   1.257       .  A
C332        O333   1.262       .  A
C332       C1109   1.475       .  S
O333       Al335   1.921       .  S
O334        C336   1.258       .  A
O334       Al335   1.883       .  S
Al335       O343   1.874       .  S
Al335       O345   1.902       .  S
Al335       O344   1.776       .  S
C336        O349   1.268       .  A
C336        C949   1.483       .  S
O337        C347   1.266       .  A
O337       Al339   1.921       .  S
O338        C351   1.259       .  A
O338       Al348   1.880       .  S
Al339       O352   1.938       .  S
Al339       O349   1.935       .  S
Al339       O344   1.778       .  S
O340        C347   1.260       .  A
O340       Al348   1.906       .  S
O341        C350   1.266       .  A
O341       Al348   1.933       .  S
O342       Al348   1.889       .  S
O343        C350   1.255       .  A
O344       Al348   1.778       .  S
O345        C346   1.260       .  A
C346        C981   1.470       .  S
C347       C1781   1.499       .  S
C350        C917   1.485       .  S
C351        O352   1.269       .  A
C351       C1493   1.483       .  S
O353        C368   1.263       .  A
O353       Al361   1.920       .  S
C354        O364   1.259       .  A
C354        O355   1.263       .  A
C354        C862   1.490       .  S
O355       Al357   1.917       .  S
O356        C358   1.260       .  A
O356       Al357   1.882       .  S
Al357       O365   1.889       .  S
Al357       O367   1.892       .  S
Al357       O366   1.772       .  S
C358        O371   1.267       .  A
C358       C1022   1.475       .  S
O359        C369   1.260       .  A
O359       Al361   1.907       .  S
O360        C373   1.261       .  A
O360       Al370   1.884       .  S
Al361       O374   1.927       .  S
Al361       O371   1.922       .  S
Al361       O366   1.779       .  S
O362        C369   1.261       .  A
O362       Al370   1.905       .  S
O363        C372   1.265       .  A
O363       Al370   1.930       .  S
O364       Al370   1.900       .  S
O365        C372   1.261       .  A
O366       Al370   1.778       .  S
O367        C368   1.259       .  A
C368        C926   1.474       .  S
C369       C2293   1.495       .  S
C372        C894   1.491       .  S
C373        O374   1.267       .  A
C373       C2174   1.477       .  S
O375        C390   1.263       .  A
O375       Al383   1.916       .  S
C376        O386   1.258       .  A
C376        O377   1.266       .  A
C376        C958   1.489       .  S
O377       Al379   1.927       .  S
O378        C380   1.259       .  A
O378       Al379   1.885       .  S
Al379       O387   1.889       .  S
Al379       O389   1.904       .  S
Al379       O388   1.773       .  S
C380        O393   1.266       .  A
C380       C1077   1.482       .  S
O381        C391   1.264       .  A
O381       Al383   1.911       .  S
O382        C395   1.262       .  A
O382       Al392   1.882       .  S
Al383       O396   1.921       .  S
Al383       O393   1.921       .  S
Al383       O388   1.776       .  S
O384        C391   1.258       .  A
O384       Al392   1.901       .  S
O385        C394   1.262       .  A
O385       Al392   1.922       .  S
O386       Al392   1.885       .  S
O387        C394   1.258       .  A
O388       Al392   1.781       .  S
O389        C390   1.261       .  A
C390        C821   1.475       .  S
C391       C2654   1.492       .  S
C394        C789   1.471       .  S
C395        O396   1.266       .  A
C395       C2453   1.476       .  S
O397        C412   1.261       .  A
O397       Al405   1.907       .  S
C398        O408   1.256       .  A
C398        O399   1.258       .  A
C398       C1246   1.470       .  S
O399       Al401   1.903       .  S
O400        C402   1.262       .  A
O400       Al401   1.894       .  S
Al401       O409   1.882       .  S
Al401       O411   1.889       .  S
Al401       O410   1.782       .  S
C402        O415   1.268       .  A
C402        C734   1.483       .  S
O403        C413   1.260       .  A
O403       Al405   1.896       .  S
O404        C417   1.258       .  A
O404       Al414   1.882       .  S
Al405       O418   1.935       .  S
Al405       O415   1.934       .  S
Al405       O410   1.782       .  S
O406        C413   1.264       .  A
O406       Al414   1.919       .  S
O407        C416   1.269       .  A
O407       Al414   1.941       .  S
O408       Al414   1.890       .  S
O409        C416   1.258       .  A
O410       Al414   1.783       .  S
O411        C412   1.258       .  A
C412        C766   1.471       .  S
C413       C1365   1.490       .  S
C416        C830   1.489       .  S
C417        O418   1.267       .  A
C417       C1685   1.480       .  S
O419        C434   1.264       .  A
O419       Al427   1.919       .  S
C420        O430   1.257       .  A
C420        O421   1.259       .  A
C420        C661   1.477       .  S
O421       Al423   1.913       .  S
O422        C424   1.263       .  A
O422       Al423   1.889       .  S
Al423       O431   1.870       .  S
Al423       O433   1.895       .  S
Al423       O432   1.781       .  S
C424        O437   1.265       .  A
C424        C693   1.489       .  S
O425        C435   1.264       .  A
O425       Al427   1.913       .  S
O426        C439   1.260       .  A
O426       Al436   1.888       .  S
Al427       O440   1.917       .  S
Al427       O437   1.922       .  S
Al427       O432   1.781       .  S
O428        C435   1.262       .  A
O428       Al436   1.905       .  S
O429        C438   1.265       .  A
O429       Al436   1.935       .  S
O430       Al436   1.897       .  S
O431        C438   1.255       .  A
O432       Al436   1.784       .  S
O433        C434   1.257       .  A
C434        C798   1.480       .  S
C435       C1461   1.493       .  S
C438        C757   1.465       .  S
C439        O440   1.263       .  A
C439       C1813   1.477       .  S
O441        C456   1.263       .  A
O441       Al449   1.915       .  S
C442        O452   1.258       .  A
C442        O443   1.261       .  A
C442        C597   1.479       .  S
O443       Al445   1.919       .  S
O444        C446   1.262       .  A
O444       Al445   1.886       .  S
Al445       O453   1.880       .  S
Al445       O455   1.899       .  S
Al445       O454   1.775       .  S
C446        O459   1.268       .  A
C446        C670   1.495       .  S
O447        C457   1.263       .  A
O447       Al449   1.904       .  S
O448        C461   1.260       .  A
O448       Al458   1.887       .  S
Al449       O462   1.939       .  S
Al449       O459   1.941       .  S
Al449       O454   1.778       .  S
O450        C457   1.260       .  A
O450       Al458   1.906       .  S
O451        C460   1.265       .  A
O451       Al458   1.933       .  S
O452       Al458   1.897       .  S
O453        C460   1.258       .  A
O454       Al458   1.777       .  S
O455        C456   1.259       .  A
C456        C638   1.468       .  S
C457       C1662   1.484       .  S
C460        C565   1.472       .  S
C461        O462   1.269       .  A
C461       C1397   1.481       .  S
O463        C478   1.264       .  A
O463       Al471   1.929       .  S
C464        O474   1.256       .  A
C464        O465   1.258       .  A
C464        C702   1.481       .  S
O465       Al467   1.911       .  S
O466        C468   1.264       .  A
O466       Al467   1.893       .  S
Al467       O475   1.890       .  S
Al467       O477   1.890       .  S
Al467       O476   1.785       .  S
C468        O481   1.266       .  A
C468        C606   1.493       .  S
O469        C479   1.263       .  A
O469       Al471   1.918       .  S
O470        C483   1.258       .  A
O470       Al480   1.878       .  S
Al471       O484   1.929       .  S
Al471       O481   1.925       .  S
Al471       O476   1.785       .  S
O472        C479   1.258       .  A
O472       Al480   1.903       .  S
O473        C482   1.266       .  A
O473       Al480   1.929       .  S
O474       Al480   1.892       .  S
O475        C482   1.260       .  A
O476       Al480   1.785       .  S
O477        C478   1.257       .  A
C478        C885   1.480       .  S
C479       C1310   1.499       .  S
C482        C990   1.479       .  S
C483        O484   1.267       .  A
C483       C1598   1.473       .  S
O485        C500   1.264       .  A
O485       Al493   1.913       .  S
C486        O496   1.256       .  A
C486        O487   1.261       .  A
C486       C1045   1.468       .  S
O487       Al489   1.915       .  S
O488        C490   1.258       .  A
O488       Al489   1.884       .  S
Al489       O497   1.875       .  S
Al489       O499   1.900       .  S
Al489       O498   1.778       .  S
C490        O503   1.267       .  A
C490        C853   1.482       .  S
O491        C501   1.265       .  A
O491       Al493   1.918       .  S
O492        C505   1.256       .  A
O492       Al502   1.873       .  S
Al493       O506   1.945       .  S
Al493       O503   1.936       .  S
Al493       O498   1.783       .  S
O494        C501   1.261       .  A
O494       Al502   1.908       .  S
O495        C504   1.263       .  A
O495       Al502   1.921       .  S
O496       Al502   1.883       .  S
O497        C504   1.255       .  A
O498       Al502   1.777       .  S
O499        C500   1.261       .  A
C500        C574   1.475       .  S
C501       C1557   1.492       .  S
C504        C533   1.469       .  S
C505        O506   1.269       .  A
C505       C1342   1.488       .  S
O507        C522   1.260       .  A
O507       Al515   1.906       .  S
C508        O518   1.257       .  A
C508        O509   1.261       .  A
C508        C725   1.496       .  S
O509       Al511   1.914       .  S
O510        C512   1.261       .  A
O510       Al511   1.880       .  S
Al511       O519   1.879       .  S
Al511       O521   1.893       .  S
Al511       O520   1.782       .  S
C512        O525   1.267       .  A
C512       C1182   1.491       .  S
O513        C523   1.260       .  A
O513       Al515   1.903       .  S
O514        C527   1.258       .  A
O514       Al524   1.876       .  S
Al515       O528   1.934       .  S
Al515       O525   1.933       .  S
Al515       O520   1.784       .  S
O516        C523   1.261       .  A
O516       Al524   1.902       .  S
O517        C526   1.266       .  A
O517       Al524   1.933       .  S
O518       Al524   1.899       .  S
O519        C526   1.258       .  A
O520       Al524   1.783       .  S
O521        C522   1.257       .  A
C522        C542   1.463       .  S
C523       C1886   1.495       .  S
C526        C629   1.476       .  S
C527        O528   1.267       .  A
C527       C1973   1.478       .  S
C529        C530   1.402       .  A
C529        C534   1.402       .  A
C529        H539   1.084       .  S
C530        C535   1.477       .  S
C530        C531   1.408       .  A
C531        C532   1.402       .  A
C531        C536   1.506       .  S
C532        C533   1.404       .  A
C532        H537   1.082       .  S
C533        C534   1.413       .  A
C534        C538   1.508       .  S
C535        C540   1.409       .  A
C535        C544   1.404       .  A
C536        H552   1.111       .  S
C536        H553   1.110       .  S
C536        H554   1.111       .  S
C538        H549   1.111       .  S
C538        H550   1.110       .  S
C538        H551   1.108       .  S
C540        C541   1.400       .  A
C540        C545   1.507       .  S
C541        C542   1.401       .  A
C541        H546   1.078       .  S
C542        C543   1.412       .  A
C543        C544   1.405       .  A
C543        C547   1.507       .  S
C544        H548   1.083       .  S
C545        H555   1.110       .  S
C545        H556   1.110       .  S
C545        H557   1.110       .  S
C547        H558   1.110       .  S
C547        H559   1.110       .  S
C547        H560   1.110       .  S
C561        C562   1.405       .  A
C561        C566   1.406       .  A
C561        H571   1.084       .  S
C562        C567   1.483       .  S
C562        C563   1.411       .  A
C563        C564   1.400       .  A
C563        C568   1.507       .  S
C564        C565   1.403       .  A
C564        H569   1.084       .  S
C565        C566   1.413       .  A
C566        C570   1.507       .  S
C567        C572   1.413       .  A
C567        C576   1.401       .  A
C568        H584   1.108       .  S
C568        H585   1.110       .  S
C568        H586   1.111       .  S
C570        H581   1.110       .  S
C570        H582   1.110       .  S
C570        H583   1.107       .  S
C572        C573   1.407       .  A
C572        C577   1.505       .  S
C573        C574   1.404       .  A
C573        H578   1.083       .  S
C574        C575   1.416       .  A
C575        C576   1.399       .  A
C575        C579   1.509       .  S
C576        H580   1.083       .  S
C577        H587   1.111       .  S
C577        H588   1.109       .  S
C577        H589   1.110       .  S
C579        H590   1.108       .  S
C579        H591   1.111       .  S
C579        H592   1.111       .  S
C593        C594   1.403       .  A
C593        C598   1.404       .  A
C593        H603   1.084       .  S
C594        C599   1.484       .  S
C594        C595   1.410       .  A
C595        C596   1.405       .  A
C595        C600   1.506       .  S
C596        C597   1.406       .  A
C596        H601   1.085       .  S
C597        C598   1.414       .  A
C598        C602   1.507       .  S
C599        C604   1.410       .  A
C599        C608   1.400       .  A
C600        H616   1.110       .  S
C600        H617   1.110       .  S
C600        H618   1.111       .  S
C602        H613   1.109       .  S
C602        H614   1.111       .  S
C602        H615   1.110       .  S
C604        C605   1.401       .  A
C604        C609   1.508       .  S
C605        C606   1.408       .  A
C605        H610   1.084       .  S
C606        C607   1.424       .  A
C607        C608   1.407       .  A
C607        C611   1.509       .  S
C608        H612   1.084       .  S
C609        H619   1.111       .  S
C609        H620   1.109       .  S
C609        H621   1.110       .  S
C611        H622   1.111       .  S
C611        H623   1.109       .  S
C611        H624   1.110       .  S
C625        C626   1.399       .  A
C625        C630   1.404       .  A
C625        H635   1.085       .  S
C626        C631   1.478       .  S
C626        C627   1.411       .  A
C627        C628   1.402       .  A
C627        C632   1.507       .  S
C628        C629   1.403       .  A
C628        H633   1.085       .  S
C629        C630   1.416       .  A
C630        C634   1.505       .  S
C631        C636   1.413       .  A
C631        C640   1.399       .  A
C632        H648   1.110       .  S
C632        H649   1.110       .  S
C632        H650   1.111       .  S
C634        H645   1.109       .  S
C634        H646   1.111       .  S
C634        H647   1.109       .  S
C636        C637   1.405       .  A
C636        C641   1.506       .  S
C637        C638   1.401       .  A
C637        H642   1.086       .  S
C638        C639   1.412       .  A
C639        C640   1.400       .  A
C639        C643   1.505       .  S
C640        H644   1.085       .  S
C641        H651   1.111       .  S
C641        H652   1.110       .  S
C641        H653   1.110       .  S
C643        H654   1.108       .  S
C643        H655   1.109       .  S
C643        H656   1.111       .  S
C657        C658   1.404       .  A
C657        C662   1.404       .  A
C657        H667   1.083       .  S
C658        C663   1.485       .  S
C658        C659   1.411       .  A
C659        C660   1.405       .  A
C659        C664   1.506       .  S
C660        C661   1.405       .  A
C660        H665   1.084       .  S
C661        C662   1.413       .  A
C662        C666   1.508       .  S
C663        C668   1.410       .  A
C663        C672   1.402       .  A
C664        H680   1.109       .  S
C664        H681   1.110       .  S
C664        H682   1.111       .  S
C666        H677   1.111       .  S
C666        H678   1.110       .  S
C666        H679   1.109       .  S
C668        C669   1.400       .  A
C668        C673   1.509       .  S
C669        C670   1.410       .  A
C669        H674   1.083       .  S
C670        C671   1.421       .  A
C671        C672   1.408       .  A
C671        C675   1.508       .  S
C672        H676   1.084       .  S
C673        H683   1.111       .  S
C673        H684   1.109       .  S
C673        H685   1.111       .  S
C675        H686   1.106       .  S
C675        H687   1.111       .  S
C675        H688   1.111       .  S
C689        C690   1.399       .  A
C689        C694   1.404       .  A
C689        H699   1.084       .  S
C690        C695   1.481       .  S
C690        C691   1.410       .  A
C691        C692   1.401       .  A
C691        C696   1.508       .  S
C692        C693   1.408       .  A
C692        H697   1.084       .  S
C693        C694   1.423       .  A
C694        C698   1.509       .  S
C695        C700   1.409       .  A
C695        C704   1.402       .  A
C696        H712   1.110       .  S
C696        H713   1.110       .  S
C696        H714   1.111       .  S
C698        H709   1.111       .  S
C698        H710   1.110       .  S
C698        H711   1.110       .  S
C700        C701   1.402       .  A
C700        C705   1.507       .  S
C701        C702   1.407       .  A
C701        H706   1.084       .  S
C702        C703   1.417       .  A
C703        C704   1.404       .  A
C703        C707   1.508       .  S
C704        H708   1.084       .  S
C705        H715   1.111       .  S
C705        H716   1.110       .  S
C705        H717   1.110       .  S
C707        H718   1.111       .  S
C707        H719   1.110       .  S
C707        H720   1.110       .  S
C721        C722   1.401       .  A
C721        C726   1.408       .  A
C721        H731   1.084       .  S
C722        C727   1.488       .  S
C722        C723   1.410       .  A
C723        C724   1.404       .  A
C723        C728   1.507       .  S
C724        C725   1.409       .  A
C724        H729   1.084       .  S
C725        C726   1.424       .  A
C726        C730   1.509       .  S
C727        C732   1.411       .  A
C727        C736   1.404       .  A
C728        H744   1.110       .  S
C728        H745   1.110       .  S
C728        H746   1.111       .  S
C730        H741   1.110       .  S
C730        H742   1.111       .  S
C730        H743   1.110       .  S
C732        C733   1.403       .  A
C732        C737   1.507       .  S
C733        C734   1.406       .  A
C733        H738   1.084       .  S
C734        C735   1.418       .  A
C735        C736   1.407       .  A
C735        C739   1.509       .  S
C736        H740   1.084       .  S
C737        H747   1.111       .  S
C737        H748   1.110       .  S
C737        H749   1.110       .  S
C739        H750   1.111       .  S
C739        H751   1.108       .  S
C739        H752   1.110       .  S
C753        C754   1.398       .  A
C753        C758   1.398       .  A
C753        H763   1.085       .  S
C754        C759   1.476       .  S
C754        C755   1.413       .  A
C755        C756   1.405       .  A
C755        C760   1.506       .  S
C756        C757   1.401       .  A
C756        H761   1.083       .  S
C757        C758   1.416       .  A
C758        C762   1.510       .  S
C759        C764   1.409       .  A
C759        C768   1.401       .  A
C760        H776   1.110       .  S
C760        H777   1.110       .  S
C760        H778   1.111       .  S
C762        H773   1.110       .  S
C762        H774   1.110       .  S
C762        H775   1.106       .  S
C764        C765   1.397       .  A
C764        C769   1.508       .  S
C765        C766   1.404       .  A
C765        H770   1.084       .  S
C766        C767   1.418       .  A
C767        C768   1.405       .  A
C767        C771   1.508       .  S
C768        H772   1.083       .  S
C769        H779   1.111       .  S
C769        H780   1.110       .  S
C769        H781   1.111       .  S
C771        H782   1.110       .  S
C771        H783   1.104       .  S
C771        H784   1.111       .  S
C785        C786   1.404       .  A
C785        C790   1.404       .  A
C785        H795   1.084       .  S
C786        C791   1.479       .  S
C786        C787   1.409       .  A
C787        C788   1.401       .  A
C787        C792   1.506       .  S
C788        C789   1.404       .  A
C788        H793   1.085       .  S
C789        C790   1.413       .  A
C790        C794   1.507       .  S
C791        C796   1.410       .  A
C791        C800   1.397       .  A
C792        H808   1.110       .  S
C792        H809   1.110       .  S
C792        H810   1.111       .  S
C794        H805   1.110       .  S
C794        H806   1.110       .  S
C794        H807   1.107       .  S
C796        C797   1.408       .  A
C796        C801   1.505       .  S
C797        C798   1.405       .  A
C797        H802   1.085       .  S
C798        C799   1.420       .  A
C799        C800   1.399       .  A
C799        C803   1.510       .  S
C800        H804   1.085       .  S
C801        H811   1.111       .  S
C801        H812   1.110       .  S
C801        H813   1.111       .  S
C803        H814   1.108       .  S
C803        H815   1.108       .  S
C803        H816   1.111       .  S
C817        C818   1.405       .  A
C817        C822   1.408       .  A
C817        H827   1.084       .  S
C818        C823   1.486       .  S
C818        C819   1.410       .  A
C819        C820   1.402       .  A
C819        C824   1.507       .  S
C820        C821   1.404       .  A
C820        H825   1.085       .  S
C821        C822   1.415       .  A
C822        C826   1.507       .  S
C823        C828   1.410       .  A
C823        C832   1.400       .  A
C824        H840   1.110       .  S
C824        H841   1.110       .  S
C824        H842   1.111       .  S
C826        H837   1.110       .  S
C826        H838   1.110       .  S
C826        H839   1.108       .  S
C828        C829   1.408       .  A
C828        C833   1.505       .  S
C829        C830   1.408       .  A
C829        H834   1.084       .  S
C830        C831   1.420       .  A
C831        C832   1.404       .  A
C831        C835   1.509       .  S
C832        H836   1.085       .  S
C833        H843   1.111       .  S
C833        H844   1.110       .  S
C833        H845   1.110       .  S
C835        H846   1.109       .  S
C835        H847   1.111       .  S
C835        H848   1.111       .  S
C849        C850   1.402       .  A
C849        C854   1.407       .  A
C849        H859   1.083       .  S
C850        C855   1.483       .  S
C850        C851   1.410       .  A
C851        C852   1.403       .  A
C851        C856   1.506       .  S
C852        C853   1.406       .  A
C852        H857   1.083       .  S
C853        C854   1.418       .  A
C854        C858   1.509       .  S
C855        C860   1.409       .  A
C855        C864   1.400       .  A
C856        H872   1.110       .  S
C856        H873   1.110       .  S
C856        H874   1.110       .  S
C858        H869   1.111       .  S
C858        H870   1.111       .  S
C858        H871   1.109       .  S
C860        C861   1.402       .  A
C860        C865   1.507       .  S
C861        C862   1.407       .  A
C861        H866   1.083       .  S
C862        C863   1.423       .  A
C863        C864   1.408       .  A
C863        C867   1.509       .  S
C864        H868   1.083       .  S
C865        H875   1.111       .  S
C865        H876   1.110       .  S
C865        H877   1.110       .  S
C867        H878   1.111       .  S
C867        H879   1.110       .  S
C867        H880   1.111       .  S
C881        C882   1.394       .  A
C881        C886   1.397       .  A
C881        H891   1.087       .  S
C882        C887   1.481       .  S
C882        C883   1.413       .  A
C883        C884   1.410       .  A
C883        C888   1.505       .  S
C884        C885   1.404       .  A
C884        H889   1.086       .  S
C885        C886   1.421       .  A
C886        C890   1.506       .  S
C887        C892   1.409       .  A
C887        C896   1.400       .  A
C888        H904   1.110       .  S
C888        H905   1.110       .  S
C888        H906   1.111       .  S
C890        H901   1.110       .  S
C890        H902   1.111       .  S
C890        H903   1.099       .  S
C892        C893   1.400       .  A
C892        C897   1.508       .  S
C893        C894   1.407       .  A
C893        H898   1.084       .  S
C894        C895   1.424       .  A
C895        C896   1.408       .  A
C895        C899   1.508       .  S
C896        H900   1.083       .  S
C897        H907   1.111       .  S
C897        H908   1.110       .  S
C897        H909   1.109       .  S
C899        H910   1.111       .  S
C899        H911   1.110       .  S
C899        H912   1.109       .  S
C913        C914   1.399       .  A
C913        C918   1.401       .  A
C913        H923   1.086       .  S
C914        C919   1.481       .  S
C914        C915   1.408       .  A
C915        C916   1.406       .  A
C915        C920   1.505       .  S
C916        C917   1.408       .  A
C916        H921   1.086       .  S
C917        C918   1.420       .  A
C918        C922   1.509       .  S
C919        C924   1.409       .  A
C919        C928   1.406       .  A
C920        H936   1.110       .  S
C920        H937   1.110       .  S
C920        H938   1.111       .  S
C922        H933   1.111       .  S
C922        H934   1.109       .  S
C922        H935   1.110       .  S
C924        C925   1.397       .  A
C924        C929   1.508       .  S
C925        C926   1.404       .  A
C925        H930   1.084       .  S
C926        C927   1.410       .  A
C927        C928   1.410       .  A
C927        C931   1.505       .  S
C928        H932   1.083       .  S
C929        H939   1.111       .  S
C929        H940   1.110       .  S
C929        H941   1.110       .  S
C931        H942   1.111       .  S
C931        H943   1.110       .  S
C931        H944   1.111       .  S
C945        C946   1.401       .  A
C945        C950   1.405       .  A
C945        H955   1.083       .  S
C946        C951   1.482       .  S
C946        C947   1.409       .  A
C947        C948   1.403       .  A
C947        C952   1.506       .  S
C948        C949   1.407       .  A
C948        H953   1.083       .  S
C949        C950   1.419       .  A
C950        C954   1.509       .  S
C951        C956   1.411       .  A
C951        C960   1.398       .  A
C952        H968   1.110       .  S
C952        H969   1.110       .  S
C952        H970   1.111       .  S
C954        H965   1.109       .  S
C954        H966   1.111       .  S
C954        H967   1.109       .  S
C956        C957   1.402       .  A
C956        C961   1.507       .  S
C957        C958   1.406       .  A
C957        H962   1.084       .  S
C958        C959   1.424       .  A
C959        C960   1.405       .  A
C959        C963   1.509       .  S
C960        H964   1.085       .  S
C961        H971   1.111       .  S
C961        H972   1.110       .  S
C961        H973   1.110       .  S
C963        H974   1.110       .  S
C963        H975   1.110       .  S
C963        H976   1.111       .  S
C977        C978   1.404       .  A
C977        C982   1.406       .  A
C977        H987   1.085       .  S
C978        C983   1.485       .  S
C978        C979   1.412       .  A
C979        C980   1.404       .  A
C979        C984   1.507       .  S
C980        C981   1.402       .  A
C980        H985   1.084       .  S
C981        C982   1.414       .  A
C982        C986   1.508       .  S
C983        C988   1.411       .  A
C983        C992   1.403       .  A
C984       H1000   1.110       .  S
C984       H1001   1.109       .  S
C984       H1002   1.111       .  S
C986        H997   1.110       .  S
C986        H998   1.111       .  S
C986        H999   1.109       .  S
C988        C989   1.406       .  A
C988        C993   1.506       .  S
C989        C990   1.405       .  A
C989        H994   1.086       .  S
C990        C991   1.413       .  A
C991        C992   1.405       .  A
C991        C995   1.507       .  S
C992        H996   1.086       .  S
C993       H1003   1.111       .  S
C993       H1004   1.110       .  S
C993       H1005   1.109       .  S
C995       H1006   1.109       .  S
C995       H1007   1.111       .  S
C995       H1008   1.111       .  S
C1009      C1010   1.398       .  A
C1009      C1014   1.403       .  A
C1009      H1019   1.085       .  S
C1010      C1015   1.476       .  S
C1010      C1011   1.409       .  A
C1011      C1012   1.400       .  A
C1011      C1016   1.508       .  S
C1012      C1013   1.406       .  A
C1012      H1017   1.085       .  S
C1013      C1014   1.423       .  A
C1014      C1018   1.510       .  S
C1015      C1020   1.408       .  A
C1015      C1024   1.402       .  A
C1016      H1032   1.110       .  S
C1016      H1033   1.110       .  S
C1016      H1034   1.111       .  S
C1018      H1029   1.110       .  S
C1018      H1030   1.111       .  S
C1018      H1031   1.110       .  S
C1020      C1021   1.400       .  A
C1020      C1025   1.507       .  S
C1021      C1022   1.406       .  A
C1021      H1026   1.084       .  S
C1022      C1023   1.416       .  A
C1023      C1024   1.403       .  A
C1023      C1027   1.510       .  S
C1024      H1028   1.083       .  S
C1025      H1035   1.111       .  S
C1025      H1036   1.110       .  S
C1025      H1037   1.110       .  S
C1027      H1038   1.111       .  S
C1027      H1039   1.109       .  S
C1027      H1040   1.111       .  S
C1041      C1042   1.402       .  A
C1041      C1046   1.401       .  A
C1041      H1051   1.086       .  S
C1042      C1047   1.477       .  S
C1042      C1043   1.408       .  A
C1043      C1044   1.401       .  A
C1043      C1048   1.506       .  S
C1044      C1045   1.404       .  A
C1044      H1049   1.086       .  S
C1045      C1046   1.412       .  A
C1046      C1050   1.508       .  S
C1047      C1052   1.407       .  A
C1047      C1056   1.399       .  A
C1048      H1064   1.110       .  S
C1048      H1065   1.110       .  S
C1048      H1066   1.111       .  S
C1050      H1061   1.110       .  S
C1050      H1062   1.111       .  S
C1050      H1063   1.108       .  S
C1052      C1053   1.400       .  A
C1052      C1057   1.508       .  S
C1053      C1054   1.410       .  A
C1053      H1058   1.083       .  S
C1054      C1055   1.423       .  A
C1055      C1056   1.406       .  A
C1055      C1059   1.507       .  S
C1056      H1060   1.083       .  S
C1057      H1067   1.111       .  S
C1057      H1068   1.110       .  S
C1057      H1069   1.110       .  S
C1059      H1070   1.108       .  S
C1059      H1071   1.110       .  S
C1059      H1072   1.111       .  S
C1073      C1074   1.400       .  A
C1073      C1078   1.404       .  A
C1073      H1083   1.086       .  S
C1074      C1079   1.476       .  S
C1074      C1075   1.407       .  A
C1075      C1076   1.400       .  A
C1075      C1080   1.507       .  S
C1076      C1077   1.407       .  A
C1076      H1081   1.085       .  S
C1077      C1078   1.420       .  A
C1078      C1082   1.510       .  S
C1079      C1084   1.411       .  A
C1079      C1088   1.398       .  A
C1080      H1096   1.110       .  S
C1080      H1097   1.110       .  S
C1080      H1098   1.111       .  S
C1082      H1093   1.109       .  S
C1082      H1094   1.111       .  S
C1082      H1095   1.110       .  S
C1084      C1085   1.401       .  A
C1084      C1089   1.507       .  S
C1085      C1086   1.402       .  A
C1085      H1090   1.085       .  S
C1086      C1087   1.419       .  A
C1087      C1088   1.403       .  A
C1087      C1091   1.508       .  S
C1088      H1092   1.085       .  S
C1089      H1099   1.111       .  S
C1089      H1100   1.110       .  S
C1089      H1101   1.110       .  S
C1091      H1102   1.111       .  S
C1091      H1103   1.109       .  S
C1091      H1104   1.111       .  S
C1105      C1106   1.399       .  A
C1105      C1110   1.403       .  A
C1105      H1115   1.084       .  S
C1106      C1111   1.478       .  S
C1106      C1107   1.413       .  A
C1107      C1108   1.402       .  A
C1107      C1112   1.507       .  S
C1108      C1109   1.401       .  A
C1108      H1113   1.083       .  S
C1109      C1110   1.418       .  A
C1110      C1114   1.508       .  S
C1111      C1116   1.407       .  A
C1111      C1120   1.399       .  A
C1112      H1128   1.110       .  S
C1112      H1129   1.110       .  S
C1112      H1130   1.111       .  S
C1114      H1125   1.111       .  S
C1114      H1126   1.110       .  S
C1114      H1127   1.108       .  S
C1116      C1117   1.402       .  A
C1116      C1121   1.506       .  S
C1117      C1118   1.409       .  A
C1117      H1122   1.083       .  S
C1118      C1119   1.424       .  A
C1119      C1120   1.403       .  A
C1119      C1123   1.511       .  S
C1120      H1124   1.084       .  S
C1121      H1131   1.111       .  S
C1121      H1132   1.110       .  S
C1121      H1133   1.110       .  S
C1123      H1134   1.111       .  S
C1123      H1135   1.110       .  S
C1123      H1136   1.110       .  S
C1137      C1138   1.397       .  A
C1137      C1142   1.402       .  A
C1137      H1147   1.084       .  S
C1138      C1143   1.472       .  S
C1138      C1139   1.408       .  A
C1139      C1140   1.399       .  A
C1139      C1144   1.508       .  S
C1140      C1141   1.406       .  A
C1140      H1145   1.083       .  S
C1141      C1142   1.421       .  A
C1142      C1146   1.507       .  S
C1143      C1148   1.411       .  A
C1143      C1152   1.396       .  A
C1144      H1160   1.110       .  S
C1144      H1161   1.109       .  S
C1144      H1162   1.111       .  S
C1146      H1157   1.111       .  S
C1146      H1158   1.109       .  S
C1146      H1159   1.107       .  S
C1148      C1149   1.404       .  A
C1148      C1153   1.506       .  S
C1149      C1150   1.401       .  A
C1149      H1154   1.087       .  S
C1150      C1151   1.415       .  A
C1151      C1152   1.395       .  A
C1151      C1155   1.507       .  S
C1152      H1156   1.088       .  S
C1153      H1163   1.111       .  S
C1153      H1164   1.110       .  S
C1153      H1165   1.110       .  S
C1155      H1166   1.111       .  S
C1155      H1167   1.103       .  S
C1155      H1168   1.110       .  S
C1169      C1170   1.403       .  A
C1169      C1174   1.403       .  A
C1169      H1179   1.084       .  S
C1170      C1175   1.481       .  S
C1170      C1171   1.409       .  A
C1171      C1172   1.402       .  A
C1171      C1176   1.506       .  S
C1172      C1173   1.406       .  A
C1172      H1177   1.084       .  S
C1173      C1174   1.415       .  A
C1174      C1178   1.508       .  S
C1175      C1180   1.408       .  A
C1175      C1184   1.400       .  A
C1176      H1192   1.110       .  S
C1176      H1193   1.111       .  S
C1176      H1194   1.111       .  S
C1178      H1189   1.110       .  S
C1178      H1190   1.110       .  S
C1178      H1191   1.107       .  S
C1180      C1181   1.401       .  A
C1180      C1185   1.508       .  S
C1181      C1182   1.410       .  A
C1181      H1186   1.085       .  S
C1182      C1183   1.422       .  A
C1183      C1184   1.406       .  A
C1183      C1187   1.508       .  S
C1184      H1188   1.086       .  S
C1185      H1195   1.111       .  S
C1185      H1196   1.110       .  S
C1185      H1197   1.110       .  S
C1187      H1198   1.107       .  S
C1187      H1199   1.110       .  S
C1187      H1200   1.111       .  S
C1201      C1202   1.402       .  A
C1201      C1206   1.400       .  A
C1201      H1211   1.085       .  S
C1202      C1207   1.476       .  S
C1202      C1203   1.410       .  A
C1203      C1204   1.403       .  A
C1203      C1208   1.507       .  S
C1204      C1205   1.404       .  A
C1204      H1209   1.086       .  S
C1205      C1206   1.413       .  A
C1206      C1210   1.508       .  S
C1207      C1212   1.411       .  A
C1207      C1216   1.403       .  A
C1208      H1224   1.110       .  S
C1208      H1225   1.108       .  S
C1208      H1226   1.111       .  S
C1210      H1221   1.110       .  S
C1210      H1222   1.111       .  S
C1210      H1223   1.108       .  S
C1212      C1213   1.401       .  A
C1212      C1217   1.508       .  S
C1213      C1214   1.400       .  A
C1213      H1218   1.083       .  S
C1214      C1215   1.412       .  A
C1215      C1216   1.402       .  A
C1215      C1219   1.508       .  S
C1216      H1220   1.085       .  S
C1217      H1227   1.111       .  S
C1217      H1228   1.110       .  S
C1217      H1229   1.108       .  S
C1219      H1230   1.111       .  S
C1219      H1231   1.109       .  S
C1219      H1232   1.110       .  S
C1233      C1234   1.397       .  A
C1233      C1238   1.402       .  A
C1233      H1243   1.084       .  S
C1234      C1239   1.474       .  S
C1234      C1235   1.408       .  A
C1235      C1236   1.400       .  A
C1235      C1240   1.508       .  S
C1236      C1237   1.408       .  A
C1236      H1241   1.085       .  S
C1237      C1238   1.423       .  A
C1238      C1242   1.509       .  S
C1239      C1244   1.408       .  A
C1239      C1248   1.402       .  A
C1240      H1256   1.110       .  S
C1240      H1257   1.110       .  S
C1240      H1258   1.111       .  S
C1242      H1253   1.111       .  S
C1242      H1254   1.109       .  S
C1242      H1255   1.110       .  S
C1244      C1245   1.401       .  A
C1244      C1249   1.506       .  S
C1245      C1246   1.405       .  A
C1245      H1250   1.080       .  S
C1246      C1247   1.415       .  A
C1247      C1248   1.401       .  A
C1247      C1251   1.508       .  S
C1248      H1252   1.078       .  S
C1249      H1259   1.110       .  S
C1249      H1260   1.110       .  S
C1249      H1261   1.111       .  S
C1251      H1262   1.110       .  S
C1251      H1263   1.108       .  S
C1251      H1264   1.110       .  S
C1265      C1266   1.400       .  A
C1265      C1270   1.401       .  A
C1265      H1275   1.085       .  S
C1266      C1271   1.476       .  S
C1266      C1267   1.408       .  A
C1267      C1268   1.403       .  A
C1267      C1272   1.506       .  S
C1268      C1269   1.406       .  A
C1268      H1273   1.084       .  S
C1269      C1270   1.416       .  A
C1270      C1274   1.508       .  S
C1271      C1276   1.409       .  A
C1271      C1280   1.404       .  A
C1272      H1288   1.110       .  S
C1272      H1289   1.110       .  S
C1272      H1290   1.111       .  S
C1274      H1285   1.111       .  S
C1274      H1286   1.109       .  S
C1274      H1287   1.110       .  S
C1276      C1277   1.398       .  A
C1276      C1281   1.508       .  S
C1277      C1278   1.402       .  A
C1277      H1282   1.085       .  S
C1278      C1279   1.413       .  A
C1279      C1280   1.405       .  A
C1279      C1283   1.507       .  S
C1280      H1284   1.084       .  S
C1281      H1291   1.111       .  S
C1281      H1292   1.110       .  S
C1281      H1293   1.110       .  S
C1283      H1294   1.111       .  S
C1283      H1295   1.108       .  S
C1283      H1296   1.110       .  S
C1297      C1298   1.400       .  A
C1297      C1302   1.404       .  A
C1297      H1307   1.086       .  S
C1298      C1303   1.487       .  S
C1298      C1299   1.412       .  A
C1299      C1300   1.409       .  A
C1299      C1304   1.506       .  S
C1300      C1301   1.406       .  A
C1300      H1305   1.085       .  S
C1301      C1302   1.418       .  A
C1302      C1306   1.510       .  S
C1303      C1308   1.411       .  A
C1303      C1312   1.397       .  A
C1304      H1320   1.111       .  S
C1304      H1321   1.109       .  S
C1304      H1322   1.111       .  S
C1306      H1317   1.111       .  S
C1306      H1318   1.111       .  S
C1306      H1319   1.109       .  S
C1308      C1309   1.408       .  A
C1308      C1313   1.507       .  S
C1309      C1310   1.409       .  A
C1309      H1314   1.084       .  S
C1310      C1311   1.427       .  A
C1311      C1312   1.406       .  A
C1311      C1315   1.509       .  S
C1312      H1316   1.085       .  S
C1313      H1323   1.111       .  S
C1313      H1324   1.110       .  S
C1313      H1325   1.110       .  S
C1315      H1326   1.111       .  S
C1315      H1327   1.110       .  S
C1315      H1328   1.109       .  S
C1329      C1330   1.402       .  A
C1329      C1334   1.405       .  A
C1329      H1339   1.085       .  S
C1330      C1335   1.479       .  S
C1330      C1331   1.410       .  A
C1331      C1332   1.400       .  A
C1331      C1336   1.507       .  S
C1332      C1333   1.403       .  A
C1332      H1337   1.085       .  S
C1333      C1334   1.416       .  A
C1334      C1338   1.507       .  S
C1335      C1340   1.410       .  A
C1335      C1344   1.396       .  A
C1336      H1352   1.110       .  S
C1336      H1353   1.109       .  S
C1336      H1354   1.111       .  S
C1338      H1349   1.110       .  S
C1338      H1350   1.110       .  S
C1338      H1351   1.105       .  S
C1340      C1341   1.407       .  A
C1340      C1345   1.506       .  S
C1341      C1342   1.407       .  A
C1341      H1346   1.084       .  S
C1342      C1343   1.424       .  A
C1343      C1344   1.401       .  A
C1343      C1347   1.510       .  S
C1344      H1348   1.085       .  S
C1345      H1355   1.111       .  S
C1345      H1356   1.110       .  S
C1345      H1357   1.109       .  S
C1347      H1358   1.109       .  S
C1347      H1359   1.110       .  S
C1347      H1360   1.111       .  S
C1361      C1362   1.401       .  A
C1361      C1366   1.408       .  A
C1361      H1371   1.085       .  S
C1362      C1367   1.484       .  S
C1362      C1363   1.409       .  A
C1363      C1364   1.403       .  A
C1363      C1368   1.507       .  S
C1364      C1365   1.407       .  A
C1364      H1369   1.084       .  S
C1365      C1366   1.421       .  A
C1366      C1370   1.508       .  S
C1367      C1372   1.408       .  A
C1367      C1376   1.401       .  A
C1368      H1384   1.110       .  S
C1368      H1385   1.110       .  S
C1368      H1386   1.111       .  S
C1370      H1381   1.110       .  S
C1370      H1382   1.111       .  S
C1370      H1383   1.111       .  S
C1372      C1373   1.403       .  A
C1372      C1377   1.507       .  S
C1373      C1374   1.410       .  A
C1373      H1378   1.083       .  S
C1374      C1375   1.420       .  A
C1375      C1376   1.407       .  A
C1375      C1379   1.507       .  S
C1376      H1380   1.084       .  S
C1377      H1387   1.111       .  S
C1377      H1388   1.110       .  S
C1377      H1389   1.110       .  S
C1379      H1390   1.110       .  S
C1379      H1391   1.110       .  S
C1379      H1392   1.111       .  S
C1393      C1394   1.400       .  A
C1393      C1398   1.405       .  A
C1393      H1403   1.084       .  S
C1394      C1399   1.482       .  S
C1394      C1395   1.411       .  A
C1395      C1396   1.405       .  A
C1395      C1400   1.506       .  S
C1396      C1397   1.405       .  A
C1396      H1401   1.084       .  S
C1397      C1398   1.417       .  A
C1398      C1402   1.507       .  S
C1399      C1404   1.411       .  A
C1399      C1408   1.399       .  A
C1400      H1416   1.110       .  S
C1400      H1417   1.110       .  S
C1400      H1418   1.111       .  S
C1402      H1413   1.109       .  S
C1402      H1414   1.111       .  S
C1402      H1415   1.110       .  S
C1404      C1405   1.406       .  A
C1404      C1409   1.506       .  S
C1405      C1406   1.406       .  A
C1405      H1410   1.083       .  S
C1406      C1407   1.420       .  A
C1407      C1408   1.403       .  A
C1407      C1411   1.508       .  S
C1408      H1412   1.084       .  S
C1409      H1419   1.111       .  S
C1409      H1420   1.110       .  S
C1409      H1421   1.110       .  S
C1411      H1422   1.110       .  S
C1411      H1423   1.107       .  S
C1411      H1424   1.110       .  S
C1425      C1426   1.398       .  A
C1425      C1430   1.405       .  A
C1425      H1435   1.084       .  S
C1426      C1431   1.481       .  S
C1426      C1427   1.411       .  A
C1427      C1428   1.404       .  A
C1427      C1432   1.506       .  S
C1428      C1429   1.403       .  A
C1428      H1433   1.085       .  S
C1429      C1430   1.418       .  A
C1430      C1434   1.504       .  S
C1431      C1436   1.413       .  A
C1431      C1440   1.397       .  A
C1432      H1448   1.110       .  S
C1432      H1449   1.110       .  S
C1432      H1450   1.111       .  S
C1434      H1445   1.109       .  S
C1434      H1446   1.111       .  S
C1434      H1447   1.109       .  S
C1436      C1437   1.407       .  A
C1436      C1441   1.505       .  S
C1437      C1438   1.402       .  A
C1437      H1442   1.085       .  S
C1438      C1439   1.415       .  A
C1439      C1440   1.399       .  A
C1439      C1443   1.502       .  S
C1440      H1444   1.086       .  S
C1441      H1451   1.111       .  S
C1441      H1452   1.110       .  S
C1441      H1453   1.110       .  S
C1443      H1454   1.110       .  S
C1443      H1455   1.103   1_556  S
C1443      H1456   1.111   1_556  S
C1457      C1458   1.403       .  A
C1457      C1462   1.410       .  A
C1457      H1467   1.085       .  S
C1458      C1463   1.488       .  S
C1458      C1459   1.409       .  A
C1459      C1460   1.403       .  A
C1459      C1464   1.507       .  S
C1460      C1461   1.409       .  A
C1460      H1465   1.084       .  S
C1461      C1462   1.419       .  A
C1462      C1466   1.507       .  S
C1463      C1468   1.408       .  A
C1463      C1472   1.402       .  A
C1464      H1480   1.110       .  S
C1464      H1481   1.110       .  S
C1464      H1482   1.111       .  S
C1466      H1477   1.110       .  S
C1466      H1478   1.111       .  S
C1466      H1479   1.111       .  S
C1468      C1469   1.404       .  A
C1468      C1473   1.507       .  S
C1469      C1470   1.412       .  A
C1469      H1474   1.084       .  S
C1470      C1471   1.422       .  A
C1471      C1472   1.410       .  A
C1471      C1475   1.507       .  S
C1472      H1476   1.085       .  S
C1473      H1483   1.111       .  S
C1473      H1484   1.110       .  S
C1473      H1485   1.110       .  S
C1475      H1486   1.110       .  S
C1475      H1487   1.110       .  S
C1475      H1488   1.111       .  S
C1489      C1490   1.398       .  A
C1489      C1494   1.402       .  A
C1489      H1499   1.084       .  S
C1490      C1495   1.479       .  S
C1490      C1491   1.410       .  A
C1491      C1492   1.405       .  A
C1491      C1496   1.506       .  S
C1492      C1493   1.406       .  A
C1492      H1497   1.084       .  S
C1493      C1494   1.420       .  A
C1494      C1498   1.509       .  S
C1495      C1500   1.410       .  A
C1495      C1504   1.402       .  A
C1496      H1512   1.110       .  S
C1496      H1513   1.110       .  S
C1496      H1514   1.111       .  S
C1498      H1509   1.111       .  S
C1498      H1510   1.110       .  S
C1498      H1511   1.111       .  S
C1500      C1501   1.401       .  A
C1500      C1505   1.507       .  S
C1501      C1502   1.404       .  A
C1501      H1506   1.083       .  S
C1502      C1503   1.416       .  A
C1503      C1504   1.405       .  A
C1503      C1507   1.507       .  S
C1504      H1508   1.083       .  S
C1505      H1515   1.111       .  S
C1505      H1516   1.110       .  S
C1505      H1517   1.110       .  S
C1507      H1518   1.110       .  S
C1507      H1519   1.105       .  S
C1507      H1520   1.111       .  S
C1521      C1522   1.397       .  A
C1521      C1526   1.400       .  A
C1521      H1531   1.084       .  S
C1522      C1527   1.476       .  S
C1522      C1523   1.411       .  A
C1523      C1524   1.403       .  A
C1523      C1528   1.508       .  S
C1524      C1525   1.406       .  A
C1524      H1529   1.083       .  S
C1525      C1526   1.421       .  A
C1526      C1530   1.509       .  S
C1527      C1532   1.407       .  A
C1527      C1536   1.399       .  A
C1528      H1544   1.110       .  S
C1528      H1545   1.111       .  S
C1528      H1546   1.111       .  S
C1530      H1541   1.111       .  S
C1530      H1542   1.110       .  S
C1530      H1543   1.110       .  S
C1532      C1533   1.402       .  A
C1532      C1537   1.506       .  S
C1533      C1534   1.409       .  A
C1533      H1538   1.084       .  S
C1534      C1535   1.421       .  A
C1535      C1536   1.401       .  A
C1535      C1539   1.509       .  S
C1536      H1540   1.084       .  S
C1537      H1547   1.111       .  S
C1537      H1548   1.110       .  S
C1537      H1549   1.110       .  S
C1539      H1550   1.111       .  S
C1539      H1551   1.111       .  S
C1539      H1552   1.109       .  S
C1553      C1554   1.396       .  A
C1553      C1558   1.402       .  A
C1553      H1563   1.085       .  S
C1554      C1559   1.483       .  S
C1554      C1555   1.411       .  A
C1555      C1556   1.408       .  A
C1555      C1560   1.506       .  S
C1556      C1557   1.408       .  A
C1556      H1561   1.084       .  S
C1557      C1558   1.425       .  A
C1558      C1562   1.509       .  S
C1559      C1564   1.410       .  A
C1559      C1568   1.398       .  A
C1560      H1576   1.110       .  S
C1560      H1577   1.110       .  S
C1560      H1578   1.111       .  S
C1562      H1573   1.111       .  S
C1562      H1574   1.109       .  S
C1562      H1575   1.108       .  S
C1564      C1565   1.406       .  A
C1564      C1569   1.506       .  S
C1565      C1566   1.407       .  A
C1565      H1570   1.084       .  S
C1566      C1567   1.423       .  A
C1567      C1568   1.403       .  A
C1567      C1571   1.509       .  S
C1568      H1572   1.085       .  S
C1569      H1579   1.111       .  S
C1569      H1580   1.110       .  S
C1569      H1581   1.110       .  S
C1571      H1582   1.111       .  S
C1571      H1583   1.110       .  S
C1571      H1584   1.109       .  S
C1585      C1586   1.398       .  A
C1585      C1590   1.403       .  A
C1585      H1595   1.083       .  S
C1586      C1591   1.480       .  S
C1586      C1587   1.410       .  A
C1587      C1588   1.406       .  A
C1587      C1592   1.506       .  S
C1588      C1589   1.406       .  A
C1588      H1593   1.083       .  S
C1589      C1590   1.420       .  A
C1590      C1594   1.508       .  S
C1591      C1596   1.410       .  A
C1591      C1600   1.402       .  A
C1592      H1608   1.110       .  S
C1592      H1609   1.110       .  S
C1592      H1610   1.111       .  S
C1594      H1605   1.111       .  S
C1594      H1606   1.110       .  S
C1594      H1607   1.109       .  S
C1596      C1597   1.403       .  A
C1596      C1601   1.507       .  S
C1597      C1598   1.404       .  A
C1597      H1602   1.084       .  S
C1598      C1599   1.414       .  A
C1599      C1600   1.404       .  A
C1599      C1603   1.507       .  S
C1600      H1604   1.084       .  S
C1601      H1611   1.111       .  S
C1601      H1612   1.110       .  S
C1601      H1613   1.110       .  S
C1603      H1614   1.110       .  S
C1603      H1615   1.107       .  S
C1603      H1616   1.111       .  S
C1617      C1618   1.404       .  A
C1617      C1622   1.410       .  A
C1617      H1627   1.086       .  S
C1618      C1623   1.486       .  S
C1618      C1619   1.410       .  A
C1619      C1620   1.399       .  A
C1619      C1624   1.509       .  S
C1620      C1621   1.406       .  A
C1620      H1625   1.086       .  S
C1621      C1622   1.421       .  A
C1622      C1626   1.507       .  S
C1623      C1628   1.414       .  A
C1623      C1632   1.401       .  A
C1624      H1640   1.109       .  S
C1624      H1641   1.111       .  S
C1624      H1642   1.111       .  S
C1626      H1637   1.111       .  S
C1626      H1638   1.110       .  S
C1626      H1639   1.103       .  S
C1628      C1629   1.407       .  A
C1628      C1633   1.506       .  S
C1629      C1630   1.402       .  A
C1629      H1634   1.083       .  S
C1630      C1631   1.416       .  A
C1631      C1632   1.402       .  A
C1631      C1635   1.508       .  S
C1632      H1636   1.084       .  S
C1633      H1643   1.111       .  S
C1633      H1644   1.110       .  S
C1633      H1645   1.110       .  S
C1635      H1646   1.110       .  S
C1635      H1647   1.108       .  S
C1635      H1648   1.111       .  S
C1649      C1650   1.399       .  A
C1649      C1654   1.401       .  A
C1649      H1659   1.085       .  S
C1650      C1655   1.476       .  S
C1650      C1651   1.410       .  A
C1651      C1652   1.404       .  A
C1651      C1656   1.506       .  S
C1652      C1653   1.404       .  A
C1652      H1657   1.085       .  S
C1653      C1654   1.418       .  A
C1654      C1658   1.508       .  S
C1655      C1660   1.409       .  A
C1655      C1664   1.396       .  A
C1656      H1672   1.110       .  S
C1656      H1673   1.110       .  S
C1656      H1674   1.111       .  S
C1658      H1669   1.108       .  S
C1658      H1670   1.111       .  S
C1658      H1671   1.111   1_556  S
C1660      C1661   1.405       .  A
C1660      C1665   1.506       .  S
C1661      C1662   1.407       .  A
C1661      H1666   1.084       .  S
C1662      C1663   1.422       .  A
C1663      C1664   1.400       .  A
C1663      C1667   1.509       .  S
C1664      H1668   1.084       .  S
C1665      H1675   1.111       .  S
C1665      H1676   1.110       .  S
C1665      H1677   1.110       .  S
C1667      H1678   1.109       .  S
C1667      H1679   1.108       .  S
C1667      H1680   1.111       .  S
C1681      C1682   1.402       .  A
C1681      C1686   1.406       .  A
C1681      H1691   1.085       .  S
C1682      C1687   1.485       .  S
C1682      C1683   1.411       .  A
C1683      C1684   1.403       .  A
C1683      C1688   1.508       .  S
C1684      C1685   1.406       .  A
C1684      H1689   1.085       .  S
C1685      C1686   1.417       .  A
C1686      C1690   1.507       .  S
C1687      C1692   1.411       .  A
C1687      C1696   1.398       .  A
C1688      H1704   1.110       .  S
C1688      H1705   1.109       .  S
C1688      H1706   1.111       .  S
C1690      H1701   1.110       .  S
C1690      H1702   1.110       .  S
C1690      H1703   1.104       .  S
C1692      C1693   1.407       .  A
C1692      C1697   1.507       .  S
C1693      C1694   1.406       .  A
C1693      H1698   1.084       .  S
C1694      C1695   1.423       .  A
C1695      C1696   1.404       .  A
C1695      C1699   1.509       .  S
C1696      H1700   1.084       .  S
C1697      H1707   1.111       .  S
C1697      H1708   1.110       .  S
C1697      H1709   1.109       .  S
C1699      H1710   1.110       .  S
C1699      H1711   1.109       .  S
C1699      H1712   1.111       .  S
C1713      C1714   1.399       .  A
C1713      C1718   1.406       .  A
C1713      H1723   1.084       .  S
C1714      C1719   1.483       .  S
C1714      C1715   1.410       .  A
C1715      C1716   1.404       .  A
C1715      C1720   1.507       .  S
C1716      C1717   1.407       .  A
C1716      H1721   1.084       .  S
C1717      C1718   1.423       .  A
C1718      C1722   1.509       .  S
C1719      C1724   1.409       .  A
C1719      C1728   1.401       .  A
C1720      H1736   1.110       .  S
C1720      H1737   1.110       .  S
C1720      H1738   1.111       .  S
C1722      H1733   1.111       .  S
C1722      H1734   1.110       .  S
C1722      H1735   1.110       .  S
C1724      C1725   1.405       .  A
C1724      C1729   1.505       .  S
C1725      C1726   1.408       .  A
C1725      H1730   1.083       .  S
C1726      C1727   1.418       .  A
C1727      C1728   1.404       .  A
C1727      C1731   1.508       .  S
C1728      H1732   1.083       .  S
C1729      H1739   1.111       .  S
C1729      H1740   1.110       .  S
C1729      H1741   1.110       .  S
C1731      H1742   1.111       .  S
C1731      H1743   1.111       .  S
C1731      H1744   1.109       .  S
C1745      C1746   1.399       .  A
C1745      C1750   1.406       .  A
C1745      H1755   1.085       .  S
C1746      C1751   1.482       .  S
C1746      C1747   1.412       .  A
C1747      C1748   1.403       .  A
C1747      C1752   1.508       .  S
C1748      C1749   1.405       .  A
C1748      H1753   1.086       .  S
C1749      C1750   1.421       .  A
C1750      C1754   1.509       .  S
C1751      C1756   1.409       .  A
C1751      C1760   1.400       .  A
C1752      H1768   1.110       .  S
C1752      H1769   1.111       .  S
C1752      H1770   1.111       .  S
C1754      H1765   1.110       .  S
C1754      H1766   1.111       .  S
C1754      H1767   1.111       .  S
C1756      C1757   1.404       .  A
C1756      C1761   1.506       .  S
C1757      C1758   1.407       .  A
C1757      H1762   1.084       .  S
C1758      C1759   1.420       .  A
C1759      C1760   1.404       .  A
C1759      C1763   1.511       .  S
C1760      H1764   1.084       .  S
C1761      H1771   1.111       .  S
C1761      H1772   1.110       .  S
C1761      H1773   1.110       .  S
C1763      H1774   1.111       .  S
C1763      H1775   1.111       .  S
C1763      H1776   1.109       .  S
C1777      C1778   1.396       .  A
C1777      C1782   1.404       .  A
C1777      H1787   1.084       .  S
C1778      C1783   1.484       .  S
C1778      C1779   1.410       .  A
C1779      C1780   1.408       .  A
C1779      C1784   1.506       .  S
C1780      C1781   1.410       .  A
C1780      H1785   1.084       .  S
C1781      C1782   1.428       .  A
C1782      C1786   1.510       .  S
C1783      C1788   1.410       .  A
C1783      C1792   1.396       .  A
C1784      H1800   1.110       .  S
C1784      H1801   1.110       .  S
C1784      H1802   1.111       .  S
C1786      H1797   1.109       .  S
C1786      H1798   1.111       .  S
C1786      H1799   1.110       .  S
C1788      C1789   1.408       .  A
C1788      C1793   1.505       .  S
C1789      C1790   1.410       .  A
C1789      H1794   1.083       .  S
C1790      C1791   1.427       .  A
C1791      C1792   1.403       .  A
C1791      C1795   1.509       .  S
C1792      H1796   1.083       .  S
C1793      H1803   1.111       .  S
C1793      H1804   1.110       .  S
C1793      H1805   1.110       .  S
C1795      H1806   1.110       .  S
C1795      H1807   1.110       .  S
C1795      H1808   1.111       .  S
C1809      C1810   1.401       .  A
C1809      C1814   1.405       .  A
C1809      H1819   1.086       .  S
C1810      C1815   1.479       .  S
C1810      C1811   1.410       .  A
C1811      C1812   1.401       .  A
C1811      C1816   1.507       .  S
C1812      C1813   1.403       .  A
C1812      H1817   1.085       .  S
C1813      C1814   1.416       .  A
C1814      C1818   1.507       .  S
C1815      C1820   1.410       .  A
C1815      C1824   1.398       .  A
C1816      H1832   1.110       .  S
C1816      H1833   1.109       .  S
C1816      H1834   1.111       .  S
C1818      H1829   1.111       .  S
C1818      H1830   1.109       .  S
C1818      H1831   1.110       .  S
C1820      C1821   1.405       .  A
C1820      C1825   1.506       .  S
C1821      C1822   1.405       .  A
C1821      H1826   1.084       .  S
C1822      C1823   1.421       .  A
C1823      C1824   1.402       .  A
C1823      C1827   1.509       .  S
C1824      H1828   1.085       .  S
C1825      H1835   1.110       .  S
C1825      H1836   1.110       .  S
C1825      H1837   1.109       .  S
C1827      H1838   1.111       .  S
C1827      H1839   1.110       .  S
C1827      H1840   1.109       .  S
C1841      C1842   1.401       .  A
C1841      C1846   1.400       .  A
C1841      H1851   1.084       .  S
C1842      C1847   1.482       .  S
C1842      C1843   1.414       .  A
C1843      C1844   1.404       .  A
C1843      C1848   1.507       .  S
C1844      C1845   1.400       .  A
C1844      H1849   1.084       .  S
C1845      C1846   1.415       .  A
C1846      C1850   1.510       .  S
C1847      C1852   1.412       .  A
C1847      C1856   1.404       .  A
C1848      H1864   1.109       .  S
C1848      H1865   1.110       .  S
C1848      H1866   1.111       .  S
C1850      H1861   1.110       .  S
C1850      H1862   1.110       .  S
C1850      H1863   1.107       .  S
C1852      C1853   1.400       .  A
C1852      C1857   1.508       .  S
C1853      C1854   1.402       .  A
C1853      H1858   1.085       .  S
C1854      C1855   1.415       .  A
C1855      C1856   1.405       .  A
C1855      C1859   1.507       .  S
C1856      H1860   1.085       .  S
C1857      H1867   1.111       .  S
C1857      H1868   1.109       .  S
C1857      H1869   1.111       .  S
C1859      H1870   1.110       .  S
C1859      H1871   1.107       .  S
C1859      H1872   1.111       .  S
C1873      C1874   1.401       .  A
C1873      C1878   1.408       .  A
C1873      H1883   1.083       .  S
C1874      C1879   1.481       .  S
C1874      C1875   1.407       .  A
C1875      C1876   1.400       .  A
C1875      C1880   1.507       .  S
C1876      C1877   1.409       .  A
C1876      H1881   1.083       .  S
C1877      C1878   1.423       .  A
C1878      C1882   1.508       .  S
C1879      C1884   1.407       .  A
C1879      C1888   1.400       .  A
C1880      H1896   1.110       .  S
C1880      H1897   1.110       .  S
C1880      H1898   1.111       .  S
C1882      H1893   1.111       .  S
C1882      H1894   1.111       .  S
C1882      H1895   1.110       .  S
C1884      C1885   1.401       .  A
C1884      C1889   1.507       .  S
C1885      C1886   1.411       .  A
C1885      H1890   1.085       .  S
C1886      C1887   1.422       .  A
C1887      C1888   1.407       .  A
C1887      C1891   1.508       .  S
C1888      H1892   1.085       .  S
C1889      H1899   1.111       .  S
C1889      H1900   1.110       .  S
C1889      H1901   1.110       .  S
C1891      H1902   1.111       .  S
C1891      H1903   1.110       .  S
C1891      H1904   1.110       .  S
C1905      C1906   1.398       .  A
C1905      C1910   1.401       .  A
C1905      H1915   1.085       .  S
C1906      C1911   1.479       .  S
C1906      C1907   1.410       .  A
C1907      C1908   1.405       .  A
C1907      C1912   1.506       .  S
C1908      C1909   1.405       .  A
C1908      H1913   1.084       .  S
C1909      C1910   1.421       .  A
C1910      C1914   1.510       .  S
C1911      C1916   1.409       .  A
C1911      C1920   1.402       .  A
C1912      H1928   1.110       .  S
C1912      H1929   1.110       .  S
C1912      H1930   1.111       .  S
C1914      H1925   1.111       .  S
C1914      H1926   1.110       .  S
C1914      H1927   1.104       .  S
C1916      C1917   1.400       .  A
C1916      C1921   1.508       .  S
C1917      C1918   1.404       .  A
C1917      H1922   1.083       .  S
C1918      C1919   1.417       .  A
C1919      C1920   1.406       .  A
C1919      C1923   1.507       .  S
C1920      H1924   1.084       .  S
C1921      H1931   1.110       .  S
C1921      H1932   1.110       .  S
C1921      H1933   1.110       .  S
C1923      H1934   1.110       .  S
C1923      H1935   1.104       .  S
C1923      H1936   1.110       .  S
C1937      C1938   1.399       .  A
C1937      C1942   1.405       .  A
C1937      H1947   1.085       .  S
C1938      C1943   1.479       .  S
C1938      C1939   1.408       .  A
C1939      C1940   1.401       .  A
C1939      C1944   1.508       .  S
C1940      C1941   1.410       .  A
C1940      H1945   1.085       .  S
C1941      C1942   1.423       .  A
C1942      C1946   1.508       .  S
C1943      C1948   1.409       .  A
C1943      C1952   1.402       .  A
C1944      H1960   1.110       .  S
C1944      H1961   1.110       .  S
C1944      H1962   1.111       .  S
C1946      H1957   1.111       .  S
C1946      H1958   1.109       .  S
C1946      H1959   1.111       .  S
C1948      C1949   1.402       .  A
C1948      C1953   1.506       .  S
C1949      C1950   1.406       .  A
C1949      H1954   1.085       .  S
C1950      C1951   1.414       .  A
C1951      C1952   1.402       .  A
C1951      C1955   1.508       .  S
C1952      H1956   1.084       .  S
C1953      H1963   1.111       .  S
C1953      H1964   1.110       .  S
C1953      H1965   1.110       .  S
C1955      H1966   1.111       .  S
C1955      H1967   1.107       .  S
C1955      H1968   1.110       .  S
C1969      C1970   1.402       .  A
C1969      C1974   1.406       .  A
C1969      H1979   1.084       .  S
C1970      C1975   1.481       .  S
C1970      C1971   1.410       .  A
C1971      C1972   1.401       .  A
C1971      C1976   1.507       .  S
C1972      C1973   1.404       .  A
C1972      H1977   1.085       .  S
C1973      C1974   1.417       .  A
C1974      C1978   1.506       .  S
C1975      C1980   1.411       .  A
C1975      C1984   1.397       .  A
C1976      H1992   1.110       .  S
C1976      H1993   1.110       .  S
C1976      H1994   1.111       .  S
C1978      H1989   1.111       .  S
C1978      H1990   1.110       .  S
C1978      H1991   1.104       .  S
C1980      C1981   1.406       .  A
C1980      C1985   1.506       .  S
C1981      C1982   1.405       .  A
C1981      H1986   1.085       .  S
C1982      C1983   1.422       .  A
C1983      C1984   1.402       .  A
C1983      C1987   1.510       .  S
C1984      H1988   1.086       .  S
C1985      H1995   1.111       .  S
C1985      H1996   1.110       .  S
C1985      H1997   1.110       .  S
C1987      H1998   1.110       .  S
C1987      H1999   1.111       .  S
C1987      H2000   1.111       .  S
C2001      C2002   1.398       .  A
C2001      C2006   1.402       .  A
C2001      H2011   1.085       .  S
C2002      C2007   1.481       .  S
C2002      C2003   1.409       .  A
C2003      C2004   1.404       .  A
C2003      C2008   1.506       .  S
C2004      C2005   1.408       .  A
C2004      H2009   1.084       .  S
C2005      C2006   1.424       .  A
C2006      C2010   1.509       .  S
C2007      C2012   1.409       .  A
C2007      C2016   1.398       .  A
C2008      H2024   1.109       .  S
C2008      H2025   1.110       .  S
C2008      H2026   1.111       .  S
C2010      H2021   1.110       .  S
C2010      H2022   1.111       .  S
C2010      H2023   1.110       .  S
C2012      C2013   1.404       .  A
C2012      C2017   1.507       .  S
C2013      C2014   1.408       .  A
C2013      H2018   1.083       .  S
C2014      C2015   1.423       .  A
C2015      C2016   1.403       .  A
C2015      C2019   1.509       .  S
C2016      H2020   1.084       .  S
C2017      H2027   1.111       .  S
C2017      H2028   1.110       .  S
C2017      H2029   1.110       .  S
C2019      H2030   1.109       .  S
C2019      H2031   1.109       .  S
C2019      H2032   1.111       .  S
C2033      C2034   1.399       .  A
C2033      C2038   1.400       .  A
C2033      H2043   1.085       .  S
C2034      C2039   1.484       .  S
C2034      C2035   1.412       .  A
C2035      C2036   1.408       .  A
C2035      C2040   1.505       .  S
C2036      C2037   1.405       .  A
C2036      H2041   1.084       .  S
C2037      C2038   1.417       .  A
C2038      C2042   1.509       .  S
C2039      C2044   1.411       .  A
C2039      C2048   1.404       .  A
C2040      H2056   1.110       .  S
C2040      H2057   1.110       .  S
C2040      H2058   1.111       .  S
C2042      H2053   1.111       .  S
C2042      H2054   1.109       .  S
C2042      H2055   1.110       .  S
C2044      C2045   1.402       .  A
C2044      C2049   1.507       .  S
C2045      C2046   1.404       .  A
C2045      H2050   1.084       .  S
C2046      C2047   1.413       .  A
C2047      C2048   1.405       .  A
C2047      C2051   1.507       .  S
C2048      H2052   1.083       .  S
C2049      H2059   1.111       .  S
C2049      H2060   1.109       .  S
C2049      H2061   1.110       .  S
C2051      H2062   1.110       .  S
C2051      H2063   1.107       .  S
C2051      H2064   1.110       .  S
C2065      C2066   1.401       .  A
C2065      C2070   1.403       .  A
C2065      H2075   1.084       .  S
C2066      C2071   1.475       .  S
C2066      C2067   1.406       .  A
C2067      C2068   1.401       .  A
C2067      C2072   1.506       .  S
C2068      C2069   1.408       .  A
C2068      H2073   1.084       .  S
C2069      C2070   1.415       .  A
C2070      C2074   1.507       .  S
C2071      C2076   1.409       .  A
C2071      C2080   1.398       .  A
C2072      H2088   1.110       .  S
C2072      H2089   1.110       .  S
C2072      H2090   1.111       .  S
C2074      H2085   1.109       .  S
C2074      H2086   1.111       .  S
C2074      H2087   1.110       .  S
C2076      C2077   1.402       .  A
C2076      C2081   1.507       .  S
C2077      C2078   1.406       .  A
C2077      H2082   1.084       .  S
C2078      C2079   1.419       .  A
C2079      C2080   1.402       .  A
C2079      C2083   1.508       .  S
C2080      H2084   1.084       .  S
C2081      H2091   1.111       .  S
C2081      H2092   1.110       .  S
C2081      H2093   1.110       .  S
C2083      H2094   1.110       .  S
C2083      H2095   1.110       .  S
C2083      H2096   1.111       .  S
C2097      C2098   1.404       .  A
C2097      C2102   1.406       .  A
C2097      H2107   1.086       .  S
C2098      C2103   1.481       .  S
C2098      C2099   1.409       .  A
C2099      C2100   1.399       .  A
C2099      C2104   1.507       .  S
C2100      C2101   1.404       .  A
C2100      H2105   1.087       .  S
C2101      C2102   1.413       .  A
C2102      C2106   1.507       .  S
C2103      C2108   1.408       .  A
C2103      C2112   1.400       .  A
C2104      H2120   1.110       .  S
C2104      H2121   1.110       .  S
C2104      H2122   1.111       .  S
C2106      H2117   1.110       .  S
C2106      H2118   1.110       .  S
C2106      H2119   1.107       .  S
C2108      C2109   1.406       .  A
C2108      C2113   1.505       .  S
C2109      C2110   1.408       .  A
C2109      H2114   1.083       .  S
C2110      C2111   1.418       .  A
C2111      C2112   1.403       .  A
C2111      C2115   1.508       .  S
C2112      H2116   1.085       .  S
C2113      H2123   1.111       .  S
C2113      H2124   1.110       .  S
C2113      H2125   1.110       .  S
C2115      H2126   1.111       .  S
C2115      H2127   1.109       .  S
C2115      H2128   1.111       .  S
C2129      C2130   1.396       .  A
C2129      C2134   1.402       .  A
C2129      H2139   1.086       .  S
C2130      C2135   1.477       .  S
C2130      C2131   1.408       .  A
C2131      C2132   1.403       .  A
C2131      C2136   1.507       .  S
C2132      C2133   1.409       .  A
C2132      H2137   1.083       .  S
C2133      C2134   1.425       .  A
C2134      C2138   1.509       .  S
C2135      C2140   1.408       .  A
C2135      C2144   1.396       .  A
C2136      H2152   1.110       .  S
C2136      H2153   1.109       .  S
C2136      H2154   1.111       .  S
C2138      H2149   1.110       .  S
C2138      H2150   1.111       .  S
C2138      H2151   1.110       .  S
C2140      C2141   1.405       .  A
C2140      C2145   1.507       .  S
C2141      C2142   1.409       .  A
C2141      H2146   1.082       .  S
C2142      C2143   1.425       .  A
C2143      C2144   1.401       .  A
C2143      C2147   1.510       .  S
C2144      H2148   1.084       .  S
C2145      H2155   1.110       .  S
C2145      H2156   1.110       .  S
C2145      H2157   1.109       .  S
C2147      H2158   1.111       .  S
C2147      H2159   1.110       .  S
C2147      H2160   1.111       .  S
C2161      C2162   1.401       .  A
C2161      C2166   1.403       .  A
C2161      H2171   1.085       .  S
C2162      C2167   1.479       .  S
C2162      C2163   1.409       .  A
C2163      C2164   1.402       .  A
C2163      C2168   1.506       .  S
C2164      C2165   1.406       .  A
C2164      H2169   1.083       .  S
C2165      C2166   1.416       .  A
C2166      C2170   1.508       .  S
C2167      C2172   1.409       .  A
C2167      C2176   1.401       .  A
C2168      H2184   1.110       .  S
C2168      H2185   1.110       .  S
C2168      H2186   1.111       .  S
C2170      H2181   1.111       .  S
C2170      H2182   1.111       .  S
C2170      H2183   1.110       .  S
C2172      C2173   1.403       .  A
C2172      C2177   1.506       .  S
C2173      C2174   1.405       .  A
C2173      H2178   1.086       .  S
C2174      C2175   1.415       .  A
C2175      C2176   1.403       .  A
C2175      C2179   1.508       .  S
C2176      H2180   1.085       .  S
C2177      H2187   1.111       .  S
C2177      H2188   1.110       .  S
C2177      H2189   1.111       .  S
C2179      H2190   1.111       .  S
C2179      H2191   1.111       .  S
C2179      H2192   1.110       .  S
C2193      C2194   1.404       .  A
C2193      C2198   1.410       .  A
C2193      H2203   1.085       .  S
C2194      C2199   1.483       .  S
C2194      C2195   1.408       .  A
C2195      C2196   1.397       .  A
C2195      C2200   1.509       .  S
C2196      C2197   1.409       .  A
C2196      H2201   1.085       .  S
C2197      C2198   1.420       .  A
C2198      C2202   1.507       .  S
C2199      C2204   1.413       .  A
C2199      C2208   1.401       .  A
C2200      H2216   1.109       .  S
C2200      H2217   1.111       .  S
C2200      H2218   1.111       .  S
C2202      H2213   1.111       .  S
C2202      H2214   1.110       .  S
C2202      H2215   1.103       .  S
C2204      C2205   1.406       .  A
C2204      C2209   1.506       .  S
C2205      C2206   1.403       .  A
C2205      H2210   1.083       .  S
C2206      C2207   1.417       .  A
C2207      C2208   1.402       .  A
C2207      C2211   1.510       .  S
C2208      H2212   1.082       .  S
C2209      H2219   1.111       .  S
C2209      H2220   1.110       .  S
C2209      H2221   1.110       .  S
C2211      H2222   1.110       .  S
C2211      H2223   1.107       .  S
C2211      H2224   1.110       .  S
C2225      C2226   1.398       .  A
C2225      C2230   1.404       .  A
C2225      H2235   1.084       .  S
C2226      C2231   1.475       .  S
C2226      C2227   1.409       .  A
C2227      C2228   1.400       .  A
C2227      C2232   1.507       .  S
C2228      C2229   1.405       .  A
C2228      H2233   1.083       .  S
C2229      C2230   1.420       .  A
C2230      C2234   1.509       .  S
C2231      C2236   1.407       .  A
C2231      C2240   1.400       .  A
C2232      H2248   1.110       .  S
C2232      H2249   1.110       .  S
C2232      H2250   1.111       .  S
C2234      H2245   1.111       .  S
C2234      H2246   1.111       .  S
C2234      H2247   1.110       .  S
C2236      C2237   1.400       .  A
C2236      C2241   1.506       .  S
C2237      C2238   1.406       .  A
C2237      H2242   1.084       .  S
C2238      C2239   1.420       .  A
C2239      C2240   1.403       .  A
C2239      C2243   1.510       .  S
C2240      H2244   1.084       .  S
C2241      H2251   1.111       .  S
C2241      H2252   1.110       .  S
C2241      H2253   1.110       .  S
C2243      H2254   1.111       .  S
C2243      H2255   1.110       .  S
C2243      H2256   1.109       .  S
C2257      C2258   1.399       .  A
C2257      C2262   1.399       .  A
C2257      H2267   1.084       .  S
C2258      C2263   1.478       .  S
C2258      C2259   1.412       .  A
C2259      C2260   1.405       .  A
C2259      C2264   1.506       .  S
C2260      C2261   1.402       .  A
C2260      H2265   1.084       .  S
C2261      C2262   1.416       .  A
C2262      C2266   1.510       .  S
C2263      C2268   1.407       .  A
C2263      C2272   1.403       .  A
C2264      H2280   1.110       .  S
C2264      H2281   1.110       .  S
C2264      H2282   1.111       .  S
C2266      H2277   1.110       .  S
C2266      H2278   1.110       .  S
C2266      H2279   1.107       .  S
C2268      C2269   1.395       .  A
C2268      C2273   1.508       .  S
C2269      C2270   1.405       .  A
C2269      H2274   1.084       .  S
C2270      C2271   1.419       .  A
C2271      C2272   1.408       .  A
C2271      C2275   1.508       .  S
C2272      H2276   1.084       .  S
C2273      H2283   1.111       .  S
C2273      H2284   1.109       .  S
C2273      H2285   1.111       .  S
C2275      H2286   1.110       .  S
C2275      H2287   1.104       .  S
C2275      H2288   1.111       .  S
C2289      C2290   1.402       .  A
C2289      C2294   1.409       .  A
C2289      H2299   1.083       .  S
C2290      C2295   1.485       .  S
C2290      C2291   1.408       .  A
C2291      C2292   1.401       .  A
C2291      C2296   1.508       .  S
C2292      C2293   1.410       .  A
C2292      H2297   1.084       .  S
C2293      C2294   1.422       .  A
C2294      C2298   1.507       .  S
C2295      C2300   1.408       .  A
C2295      C2304   1.401       .  A
C2296      H2312   1.110       .  S
C2296      H2313   1.110       .  S
C2296      H2314   1.111       .  S
C2298      H2309   1.110       .  S
C2298      H2310   1.111       .  S
C2298      H2311   1.111       .  S
C2300      C2301   1.402       .  A
C2300      C2305   1.507       .  S
C2301      C2302   1.409       .  A
C2301      H2306   1.085       .  S
C2302      C2303   1.422       .  A
C2303      C2304   1.408       .  A
C2303      C2307   1.508       .  S
C2304      H2308   1.084       .  S
C2305      H2315   1.111       .  S
C2305      H2316   1.110       .  S
C2305      H2317   1.110       .  S
C2307      H2318   1.110       .  S
C2307      H2319   1.110       .  S
C2307      H2320   1.111       .  S
C2321      C2322   1.401       .  A
C2321      C2326   1.403       .  A
C2321      H2331   1.085       .  S
C2322      C2327   1.481       .  S
C2322      C2323   1.410       .  A
C2323      C2324   1.403       .  A
C2323      C2328   1.507       .  S
C2324      C2325   1.406       .  A
C2324      H2329   1.085       .  S
C2325      C2326   1.417       .  A
C2326      C2330   1.508       .  S
C2327      C2332   1.410       .  A
C2327      C2336   1.401       .  A
C2328      H2344   1.109       .  S
C2328      H2345   1.110       .  S
C2328      H2346   1.111       .  S
C2330      H2341   1.110       .  S
C2330      H2342   1.111       .  S
C2330      H2343   1.111       .  S
C2332      C2333   1.402       .  A
C2332      C2337   1.507       .  S
C2333      C2334   1.407       .  A
C2333      H2338   1.085       .  S
C2334      C2335   1.417       .  A
C2335      C2336   1.404       .  A
C2335      C2339   1.508       .  S
C2336      H2340   1.085       .  S
C2337      H2347   1.111       .  S
C2337      H2348   1.109       .  S
C2337      H2349   1.110       .  S
C2339      H2350   1.111       .  S
C2339      H2351   1.110       .  S
C2339      H2352   1.111       .  S
C2353      C2354   1.400       .  A
C2353      C2358   1.401       .  A
C2353      H2363   1.084       .  S
C2354      C2359   1.479       .  S
C2354      C2355   1.410       .  A
C2355      C2356   1.406       .  A
C2355      C2360   1.506       .  S
C2356      C2357   1.407       .  A
C2356      H2361   1.085       .  S
C2357      C2358   1.416       .  A
C2358      C2362   1.508       .  S
C2359      C2364   1.411       .  A
C2359      C2368   1.404       .  A
C2360      H2376   1.110       .  S
C2360      H2377   1.109       .  S
C2360      H2378   1.111       .  S
C2362      H2373   1.111       .  S
C2362      H2374   1.109       .  S
C2362      H2375   1.110       .  S
C2364      C2365   1.401       .  A
C2364      C2369   1.507       .  S
C2365      C2366   1.401       .  A
C2365      H2370   1.085       .  S
C2366      C2367   1.412       .  A
C2367      C2368   1.404       .  A
C2367      C2371   1.508       .  S
C2368      H2372   1.085       .  S
C2369      H2379   1.111       .  S
C2369      H2380   1.110       .  S
C2369      H2381   1.109       .  S
C2371      H2382   1.111       .  S
C2371      H2383   1.109       .  S
C2371      H2384   1.110       .  S
C2385      C2386   1.398       .  A
C2385      C2390   1.404       .  A
C2385      H2395   1.085       .  S
C2386      C2391   1.480       .  S
C2386      C2387   1.410       .  A
C2387      C2388   1.401       .  A
C2387      C2392   1.508       .  S
C2388      C2389   1.407       .  A
C2388      H2393   1.085       .  S
C2389      C2390   1.422       .  A
C2390      C2394   1.508       .  S
C2391      C2396   1.409       .  A
C2391      C2400   1.402       .  A
C2392      H2408   1.109       .  S
C2392      H2409   1.110       .  S
C2392      H2410   1.111       .  S
C2394      H2405   1.111       .  S
C2394      H2406   1.110       .  S
C2394      H2407   1.110       .  S
C2396      C2397   1.401       .  A
C2396      C2401   1.507       .  S
C2397      C2398   1.405       .  A
C2397      H2402   1.085       .  S
C2398      C2399   1.418       .  A
C2399      C2400   1.404       .  A
C2399      C2403   1.510       .  S
C2400      H2404   1.085       .  S
C2401      H2411   1.111       .  S
C2401      H2412   1.109       .  S
C2401      H2413   1.110       .  S
C2403      H2414   1.111       .  S
C2403      H2415   1.110       .  S
C2403      H2416   1.109       .  S
C2417      C2418   1.402       .  A
C2417      C2422   1.403       .  A
C2417      H2427   1.083       .  S
C2418      C2423   1.479       .  S
C2418      C2419   1.408       .  A
C2419      C2420   1.402       .  A
C2419      C2424   1.506       .  S
C2420      C2421   1.406       .  A
C2420      H2425   1.083       .  S
C2421      C2422   1.416       .  A
C2422      C2426   1.509       .  S
C2423      C2428   1.409       .  A
C2423      C2432   1.398       .  A
C2424      H2440   1.110       .  S
C2424      H2441   1.110       .  S
C2424      H2442   1.111       .  S
C2426      H2437   1.110       .  S
C2426      H2438   1.111       .  S
C2426      H2439   1.108       .  S
C2428      C2429   1.402       .  A
C2428      C2433   1.507       .  S
C2429      C2430   1.406       .  A
C2429      H2434   1.083       .  S
C2430      C2431   1.422       .  A
C2431      C2432   1.405       .  A
C2431      C2435   1.510       .  S
C2432      H2436   1.084       .  S
C2433      H2443   1.111       .  S
C2433      H2444   1.110       .  S
C2433      H2445   1.110       .  S
C2435      H2446   1.111       .  S
C2435      H2447   1.110       .  S
C2435      H2448   1.111       .  S
C2449      C2450   1.399       .  A
C2449      C2454   1.401       .  A
C2449      H2459   1.085       .  S
C2450      C2455   1.474       .  S
C2450      C2451   1.408       .  A
C2451      C2452   1.401       .  A
C2451      C2456   1.506       .  S
C2452      C2453   1.406       .  A
C2452      H2457   1.084       .  S
C2453      C2454   1.417       .  A
C2454      C2458   1.509       .  S
C2455      C2460   1.408       .  A
C2455      C2464   1.400       .  A
C2456      H2472   1.110       .  S
C2456      H2473   1.110       .  S
C2456      H2474   1.111       .  S
C2458      H2469   1.111       .  S
C2458      H2470   1.111       .  S
C2458      H2471   1.110       .  S
C2460      C2461   1.401       .  A
C2460      C2465   1.506       .  S
C2461      C2462   1.404       .  A
C2461      H2466   1.086       .  S
C2462      C2463   1.413       .  A
C2463      C2464   1.401       .  A
C2463      C2467   1.508       .  S
C2464      H2468   1.087       .  S
C2465      H2475   1.111       .  S
C2465      H2476   1.110       .  S
C2465      H2477   1.110       .  S
C2467      H2478   1.111       .  S
C2467      H2479   1.109       .  S
C2467      H2480   1.111       .  S
C2481      C2482   1.402       .  A
C2481      C2486   1.407       .  A
C2481      H2491   1.083       .  S
C2482      C2487   1.481       .  S
C2482      C2483   1.408       .  A
C2483      C2484   1.401       .  A
C2483      C2488   1.507       .  S
C2484      C2485   1.407       .  A
C2484      H2489   1.083       .  S
C2485      C2486   1.419       .  A
C2486      C2490   1.508       .  S
C2487      C2492   1.408       .  A
C2487      C2496   1.401       .  A
C2488      H2504   1.110       .  S
C2488      H2505   1.110       .  S
C2488      H2506   1.111       .  S
C2490      H2501   1.111       .  S
C2490      H2502   1.111       .  S
C2490      H2503   1.110       .  S
C2492      C2493   1.400       .  A
C2492      C2497   1.507       .  S
C2493      C2494   1.408       .  A
C2493      H2498   1.085       .  S
C2494      C2495   1.420       .  A
C2495      C2496   1.407       .  A
C2495      C2499   1.507       .  S
C2496      H2500   1.086       .  S
C2497      H2507   1.111       .  S
C2497      H2508   1.110       .  S
C2497      H2509   1.110       .  S
C2499      H2510   1.111       .  S
C2499      H2511   1.110       .  S
C2499      H2512   1.111       .  S
C2513      C2514   1.401       .  A
C2513      C2518   1.407       .  A
C2513      H2523   1.083       .  S
C2514      C2519   1.485       .  S
C2514      C2515   1.411       .  A
C2515      C2516   1.403       .  A
C2515      C2520   1.507       .  S
C2516      C2517   1.405       .  A
C2516      H2521   1.083       .  S
C2517      C2518   1.419       .  A
C2518      C2522   1.507       .  S
C2519      C2524   1.409       .  A
C2519      C2528   1.401       .  A
C2520      H2536   1.109       .  S
C2520      H2537   1.110       .  S
C2520      H2538   1.111       .  S
C2522      H2533   1.109       .  S
C2522      H2534   1.111       .  S
C2522      H2535   1.111       .  S
C2524      C2525   1.404       .  A
C2524      C2529   1.506       .  S
C2525      C2526   1.409       .  A
C2525      H2530   1.080       .  S
C2526      C2527   1.423       .  A
C2527      C2528   1.406       .  A
C2527      C2531   1.510       .  S
C2528      H2532   1.083       .  S
C2529      H2539   1.111       .  S
C2529      H2540   1.109       .  S
C2529      H2541   1.111       .  S
C2531      H2542   1.111       .  S
C2531      H2543   1.111       .  S
C2531      H2544   1.109       .  S
C2545      C2546   1.396       .  A
C2545      C2550   1.397       .  A
C2545      H2555   1.083       .  S
C2546      C2551   1.482       .  S
C2546      C2547   1.413       .  A
C2547      C2548   1.410       .  A
C2547      C2552   1.505       .  S
C2548      C2549   1.404       .  A
C2548      H2553   1.083       .  S
C2549      C2550   1.418       .  A
C2550      C2554   1.505       .  S
C2551      C2556   1.410       .  A
C2551      C2560   1.399       .  A
C2552      H2568   1.110       .  S
C2552      H2569   1.110       .  S
C2552      H2570   1.111       .  S
C2554      H2565   1.110       .  S
C2554      H2566   1.110       .  S
C2554      H2567   1.101       .  S
C2556      C2557   1.402       .  A
C2556      C2561   1.508       .  S
C2557      C2558   1.408       .  A
C2557      H2562   1.086       .  S
C2558      C2559   1.422       .  A
C2559      C2560   1.407       .  A
C2559      C2563   1.507       .  S
C2560      H2564   1.086       .  S
C2561      H2571   1.111       .  S
C2561      H2572   1.110       .  S
C2561      H2573   1.109       .  S
C2563      H2574   1.110       .  S
C2563      H2575   1.107       .  S
C2563      H2576   1.111       .  S
C2577      C2578   1.400       .  A
C2577      C2582   1.403       .  A
C2577      H2587   1.084       .  S
C2578      C2583   1.478       .  S
C2578      C2579   1.408       .  A
C2579      C2580   1.403       .  A
C2579      C2584   1.506       .  S
C2580      C2581   1.407       .  A
C2580      H2585   1.084       .  S
C2581      C2582   1.418       .  A
C2582      C2586   1.509       .  S
C2583      C2588   1.409       .  A
C2583      C2592   1.404       .  A
C2584      H2600   1.110       .  S
C2584      H2601   1.109       .  S
C2584      H2602   1.111       .  S
C2586      H2597   1.111       .  S
C2586      H2598   1.110       .  S
C2586      H2599   1.110       .  S
C2588      C2589   1.399       .  A
C2588      C2593   1.507       .  S
C2589      C2590   1.404       .  A
C2589      H2594   1.082       .  S
C2590      C2591   1.412       .  A
C2591      C2592   1.405       .  A
C2591      C2595   1.507       .  S
C2592      H2596   1.084       .  S
C2593      H2603   1.111       .  S
C2593      H2604   1.110       .  S
C2593      H2605   1.109       .  S
C2595      H2606   1.111       .  S
C2595      H2607   1.108       .  S
C2595      H2608   1.110       .  S
C2609      C2610   1.398       .  A
C2609      C2614   1.404       .  A
C2609      H2619   1.083       .  S
C2610      C2615   1.478       .  S
C2610      C2611   1.410       .  A
C2611      C2612   1.403       .  A
C2611      C2616   1.507       .  S
C2612      C2613   1.406       .  A
C2612      H2617   1.083       .  S
C2613      C2614   1.422       .  A
C2614      C2618   1.510       .  S
C2615      C2620   1.408       .  A
C2615      C2624   1.401       .  A
C2616      H2632   1.110       .  S
C2616      H2633   1.110       .  S
C2616      H2634   1.110       .  S
C2618      H2629   1.110       .  S
C2618      H2630   1.111       .  S
C2618      H2631   1.111       .  S
C2620      C2621   1.401       .  A
C2620      C2625   1.507       .  S
C2621      C2622   1.407       .  A
C2621      H2626   1.084       .  S
C2622      C2623   1.417       .  A
C2623      C2624   1.404       .  A
C2623      C2627   1.509       .  S
C2624      H2628   1.085       .  S
C2625      H2635   1.111       .  S
C2625      H2636   1.110       .  S
C2625      H2637   1.110       .  S
C2627      H2638   1.111       .  S
C2627      H2639   1.109       .  S
C2627      H2640   1.111       .  S
C2641      C2642   1.396       .  A
C2641      C2646   1.402       .  A
C2641      H2651   1.084       .  S
C2642      C2647   1.478       .  S
C2642      C2643   1.407       .  A
C2643      C2644   1.404       .  A
C2643      C2648   1.506       .  S
C2644      C2645   1.410       .  A
C2644      H2649   1.083       .  S
C2645      C2646   1.426       .  A
C2646      C2650   1.510       .  S
C2647      C2652   1.408       .  A
C2647      C2656   1.397       .  A
C2648      H2664   1.111       .  S
C2648      H2665   1.109       .  S
C2648      H2666   1.111       .  S
C2650      H2661   1.111       .  S
C2650      H2662   1.110       .  S
C2650      H2663   1.108       .  S
C2652      C2653   1.403       .  A
C2652      C2657   1.506       .  S
C2653      C2654   1.408       .  A
C2653      H2658   1.083       .  S
C2654      C2655   1.426       .  A
C2655      C2656   1.403       .  A
C2655      C2659   1.510       .  S
C2656      H2660   1.085       .  S
C2657      H2667   1.110       .  S
C2657      H2668   1.110       .  S
C2657      H2669   1.110       .  S
C2659      H2670   1.111       .  S
C2659      H2671   1.111       .  S
C2659      H2672   1.110       .  S
C2673      C2674   1.400       .  A
C2673      C2678   1.406       .  A
C2673      H2683   1.084       .  S
C2674      C2679   1.482       .  S
C2674      C2675   1.408       .  A
C2675      C2676   1.403       .  A
C2675      C2680   1.507       .  S
C2676      C2677   1.410       .  A
C2676      H2681   1.084       .  S
C2677      C2678   1.422       .  A
C2678      C2682   1.508       .  S
C2679      C2684   1.411       .  A
C2679      C2688   1.401       .  A
C2680      H2696   1.110       .  S
C2680      H2697   1.110       .  S
C2680      H2698   1.111       .  S
C2682      H2693   1.110       .  S
C2682      H2694   1.111       .  S
C2682      H2695   1.111       .  S
C2684      C2685   1.405       .  A
C2684      C2689   1.505       .  S
C2685      C2686   1.403       .  A
C2685      H2690   1.085       .  S
C2686      C2687   1.415       .  A
C2687      C2688   1.402       .  A
C2687      C2691   1.509       .  S
C2688      H2692   1.085       .  S
C2689      H2699   1.111       .  S
C2689      H2700   1.110       .  S
C2689      H2701   1.111       .  S
C2691      H2702   1.111       .  S
C2691      H2703   1.106       .  S
C2691      H2704   1.110       .  S
C2705      C2706   1.399       .  A
C2705      C2710   1.406       .  A
C2705      H2715   1.082       .  S
C2706      C2711   1.481       .  S
C2706      C2707   1.410       .  A
C2707      C2708   1.403       .  A
C2707      C2712   1.507       .  S
C2708      C2709   1.406       .  A
C2708      H2713   1.083       .  S
C2709      C2710   1.421       .  A
C2710      C2714   1.507       .  S
C2711      C2716   1.408       .  A
C2711      C2720   1.402       .  A
C2712      H2728   1.111       .  S
C2712      H2729   1.110       .  S
C2712      H2730   1.110       .  S
C2714      H2725   1.110       .  S
C2714      H2726   1.111       .  S
C2714      H2727   1.107       .  S
C2716      C2717   1.401       .  A
C2716      C2721   1.507       .  S
C2717      C2718   1.407       .  A
C2717      H2722   1.084       .  S
C2718      C2719   1.418       .  A
C2719      C2720   1.407       .  A
C2719      C2723   1.509       .  S
C2720      H2724   1.085       .  S
C2721      H2731   1.111       .  S
C2721      H2732   1.110       .  S
C2721      H2733   1.110       .  S
C2723      H2734   1.111       .  S
C2723      H2735   1.111       .  S
C2723      H2736   1.109       .  S
C2737      C2738   1.403       .  A
C2737      C2742   1.407       .  A
C2737      H2747   1.085       .  S
C2738      C2743   1.481       .  S
C2738      C2739   1.409       .  A
C2739      C2740   1.398       .  A
C2739      C2744   1.508       .  S
C2740      C2741   1.404       .  A
C2740      H2745   1.086       .  S
C2741      C2742   1.418       .  A
C2742      C2746   1.508       .  S
C2743      C2748   1.414       .  A
C2743      C2752   1.400       .  A
C2744      H2760   1.110       .  S
C2744      H2761   1.110       .  S
C2744      H2762   1.111       .  S
C2746      H2757   1.110       .  S
C2746      H2758   1.111       .  S
C2746      H2759   1.104       .  S
C2748      C2749   1.404       .  A
C2748      C2753   1.507       .  S
C2749      C2750   1.400       .  A
C2749      H2754   1.085       .  S
C2750      C2751   1.416       .  A
C2751      C2752   1.401       .  A
C2751      C2755   1.510       .  S
C2752      H2756   1.085       .  S
C2753      H2763   1.111       .  S
C2753      H2764   1.110       .  S
C2753      H2765   1.110       .  S
C2755      H2766   1.111       .  S
C2755      H2767   1.107       .  S
C2755      H2768   1.110       .  S
C2769      C2770   1.400       .  A
C2769      C2774   1.404       .  A
C2769      H2779   1.083       .  S
C2770      C2775   1.478       .  S
C2770      C2771   1.407       .  A
C2771      C2772   1.401       .  A
C2771      C2776   1.507       .  S
C2772      C2773   1.408       .  A
C2772      H2777   1.082       .  S
C2773      C2774   1.423       .  A
C2774      C2778   1.510       .  S
C2775      C2780   1.411       .  A
C2775      C2784   1.400       .  A
C2776      H2792   1.110       .  S
C2776      H2793   1.111       .  S
C2776      H2794   1.110       .  S
C2778      H2789   1.111       .  S
C2778      H2790   1.110       .  S
C2778      H2791   1.109       .  S
C2780      C2781   1.400       .  A
C2780      C2785   1.508       .  S
C2781      C2782   1.402       .  A
C2781      H2786   1.085       .  S
C2782      C2783   1.419       .  A
C2783      C2784   1.404       .  A
C2783      C2787   1.509       .  S
C2784      H2788   1.084       .  S
C2785      H2795   1.111       .  S
C2785      H2796   1.110       .  S
C2785      H2797   1.110       .  S
C2787      H2798   1.111       .  S
C2787      H2799   1.111       .  S
C2787      H2800   1.110       .  S
C2801      C2802   1.396       .  A
C2801      C2806   1.396       .  A
C2801      H2811   1.087       .  S
C2802      C2807   1.478       .  S
C2802      C2803   1.412       .  A
C2803      C2804   1.407       .  A
C2803      C2808   1.505       .  S
C2804      C2805   1.403       .  A
C2804      H2809   1.086       .  S
C2805      C2806   1.418       .  A
C2806      C2810   1.507       .  S
C2807      C2812   1.408       .  A
C2807      C2816   1.399       .  A
C2808      H2824   1.110       .  S
C2808      H2825   1.110       .  S
C2808      H2826   1.111       .  S
C2810      H2821   1.110   1_545  S
C2810      H2822   1.111   1_545  S
C2810      H2823   1.102   1_545  S
C2812      C2813   1.401       .  A
C2812      C2817   1.508       .  S
C2813      C2814   1.409       .  A
C2813      H2818   1.082       .  S
C2814      C2815   1.423       .  A
C2815      C2816   1.406       .  A
C2815      C2819   1.507       .  S
C2816      H2820   1.084       .  S
C2817      H2827   1.110       .  S
C2817      H2828   1.110       .  S
C2817      H2829   1.110       .  S
C2819      H2830   1.110       .  S
C2819      H2831   1.109       .  S
C2819      H2832   1.111       .  S
