geometry optimzed in LAMMPS
_audit_creation_date              2020-12-01 
_audit_creation_method            'lammps2cif' 
_symmetry_space_group_name_H-M    'P1' 
_symmetry_Int_Tables_number       1 
_symmetry_cell_setting            triclinic 
loop_ 
_symmetry_equiv_pos_as_xyz 
  x,y,z 
_cell_length_a                    29.86140375 
_cell_length_b                    29.9634745028666 
_cell_length_c                    42.84878068529447 
_cell_angle_alpha                 89.37231688427337 
_cell_angle_beta                  90.03520492152813 
_cell_angle_gamma                 120.08804592782745 
loop_ 
_atom_site_label 
_atom_site_type_symbol 
_atom_site_fract_x 
_atom_site_fract_y 
_atom_site_fract_z 
_atom_site_charge 
O1          O  0.84860484  0.05443486  0.35705733    -0.85900
O2          O  0.81755723  0.12480268  0.34368765    -0.82900
C3          C  0.77536812  0.10745413  0.35883335     0.97600
O4          O  0.77574400  0.11361368  0.38789075    -0.83000
O5          O  0.80256836  0.11399161  0.44872854    -0.85600
C6          C  0.79248072  0.06771732  0.45191463     1.02100
O7          O  0.81985876  0.05294889  0.43805475    -0.78400
O8          O  0.88926607  0.04874005  0.39806530    -0.78600
C9          C  0.86239834  0.02889560  0.37404065     1.02100
O10         O  0.95469717  0.13657800  0.36545448    -0.85900
O11         O  0.92295718  0.20735100  0.35625076    -0.82900
C12         C  0.90338201  0.23491369  0.36267105     0.97600
O13         O  0.86126427  0.21554748  0.37769759    -0.83000
O14         O  0.89632146  0.21252383  0.43667386    -0.85600
C15         C  0.91219482  0.19677642  0.45910184     1.02100
O16         O  0.90014722  0.14995866  0.46096760    -0.78400
O17         O  0.96506882  0.15029762  0.41568821    -0.78500
C18         C  0.98384595  0.15079266  0.38930711     1.02000
Cr19       Cr  0.88491828  0.13115413  0.35843154     1.93700
Cr20       Cr  0.83654007  0.16191556  0.41170118     1.93200
Cr21       Cr  0.89196976  0.10260320  0.42616476     1.39100
O22         O  0.87111282  0.13183203  0.39855385    -1.23600
O23         O  0.13417945  0.18737808  0.64184620    -0.85900
O24         O  0.20354752  0.29102641  0.64745348    -0.82900
C25         C  0.23082482  0.33792585  0.63998227     0.97600
O26         O  0.21361512  0.35823073  0.62096803    -0.83000
O27         O  0.21098760  0.31242480  0.56491282    -0.85600
C28         C  0.19557903  0.27726428  0.54495268     1.02100
O29         O  0.14788457  0.24547634  0.54265539    -0.78400
O30         O  0.15129662  0.18932590  0.59209356    -0.78600
C31         C  0.14989411  0.17169547  0.61907862     1.02100
O32         O  0.05109033  0.21178880  0.64600568    -0.85900
O33         O  0.12076126  0.31411038  0.65543217    -0.82900
C34         C  0.10504141  0.33832224  0.63822640     0.97600
O35         O  0.11222184  0.34150373  0.60912786    -0.83000
O36         O  0.11069527  0.30588042  0.55072216    -0.85600
C37         C  0.06419534  0.26874439  0.54955197     1.02100
O38         O  0.05052349  0.22839523  0.56553047    -0.78400
O39         O  0.04816383  0.16025587  0.60935828    -0.78500
C40         C  0.02707517  0.16987555  0.63174153     1.02000
Cr41       Cr  0.12776110  0.25208876  0.64484150     1.93700
Cr42       Cr  0.16006791  0.32530654  0.58745237     1.93200
Cr43       Cr  0.10135414  0.20955972  0.57913572     1.39100
O44         O  0.12949989  0.26255653  0.60409855    -1.23600
O45         O  0.04186332  0.84199628  0.65109217    -0.85900
O46         O  0.10963344  0.80746442  0.66697507    -0.82900
C47         C  0.09737463  0.76627063  0.65218250     0.97600
O48         O  0.10597012  0.76802393  0.62320328    -0.83000
O49         O  0.11011797  0.79813214  0.56154899    -0.85600
C50         C  0.06466884  0.79009072  0.55624382     1.02100
O51         O  0.04804914  0.81524765  0.57071235    -0.78400
O52         O  0.04241526  0.88519377  0.60953406    -0.78600
C53         C  0.02062092  0.86083936  0.63431363     1.02100
O54         O  0.12766861  0.94724979  0.64356369    -0.85900
O55         O  0.19480813  0.91268425  0.65648659    -0.82900
C56         C  0.22362834  0.89408106  0.65139916     0.97600
O57         O  0.20721017  0.85386624  0.63514312    -0.83000
O58         O  0.20870550  0.89160414  0.57602629    -0.85600
C59         C  0.19510794  0.90835734  0.55300205     1.02100
O60         O  0.14794809  0.89434228  0.54932319    -0.78400
O61         O  0.14666305  0.95748246  0.59380971    -0.78500
C62         C  0.14453321  0.97630722  0.61939168     1.02000
Cr63       Cr  0.11898370  0.87607359  0.65166576     1.93700
Cr64       Cr  0.15563898  0.83020440  0.59988410     1.93200
Cr65       Cr  0.09787189  0.88608946  0.58302028     1.39100
O66         O  0.12367990  0.86354794  0.61186240    -1.23600
O67         O  0.19151199  0.13238868  0.36672285    -0.85900
O68         O  0.29483275  0.20210910  0.36192056    -0.82900
C69         C  0.34063629  0.23013605  0.37094293     0.97600
O70         O  0.36103625  0.21291335  0.38987439    -0.83000
O71         O  0.31203225  0.20271534  0.44558838    -0.85600
C72         C  0.27648054  0.18565201  0.46574439     1.02100
O73         O  0.24331457  0.13824645  0.46653292    -0.78400
O74         O  0.18825506  0.14423060  0.41686082    -0.78600
C75         C  0.17401520  0.14630688  0.38940334     1.02100
O76         O  0.21539206  0.04975305  0.36060014    -0.85900
O77         O  0.31919317  0.12109969  0.35255327    -0.82900
C78         C  0.34565404  0.10699098  0.36883636     0.97600
O79         O  0.34676905  0.11113342  0.39814538    -0.83000
O80         O  0.30674212  0.10309264  0.45728263    -0.85600
C81         C  0.26933616  0.05680134  0.45866974     1.02100
O82         O  0.22926858  0.04341845  0.44258078    -0.78400
O83         O  0.16292464  0.04412175  0.39792918    -0.78500
C84         C  0.17193208  0.02590518  0.37389846     1.02000
Cr85       Cr  0.25622272  0.12632362  0.36359525     1.93700
Cr86       Cr  0.32710246  0.15524041  0.42152890     1.93200
Cr87       Cr  0.21009729  0.09460875  0.42913758     1.39100
O88         O  0.26473473  0.12515813  0.40448193    -1.23600
O89         O  0.94296789  0.82565049  0.35257662    -0.85900
O90         O  0.91453607  0.72322821  0.34950580    -0.82900
C91         C  0.89978852  0.67794969  0.35888683     0.97600
O92         O  0.86248270  0.65565573  0.37812506    -0.83000
O93         O  0.91059850  0.69909033  0.43372969    -0.85600
C94         C  0.93517932  0.73495870  0.45283307     1.02100
O95         O  0.92918282  0.77379196  0.45318603    -0.78400
O96         O  0.97395090  0.82906990  0.39934488    -0.78600
C97         C  0.98060939  0.84418193  0.37132980     1.02100
O98         O  0.83614804  0.79657719  0.35798259    -0.85900
O99         O  0.80709932  0.69403822  0.34840185    -0.82900
C100        C  0.76935590  0.67137446  0.36719007     0.97600
O101        O  0.77740494  0.67144332  0.39606319    -0.83000
O102        O  0.82228280  0.70724180  0.45328874    -0.85600
C103        C  0.81689495  0.74592103  0.45816050     1.02100
O104        O  0.84160907  0.78658704  0.44215459    -0.78400
O105        O  0.89000070  0.84982923  0.39272297    -0.78500
C106        C  0.85512445  0.83853632  0.37252272     1.02000
Cr107      Cr  0.87503152  0.75880736  0.35525954     1.93700
Cr108      Cr  0.84535557  0.68802986  0.41378967     1.93200
Cr109      Cr  0.90645717  0.80557077  0.42005303     1.39100
O110        O  0.87550959  0.75071100  0.39644319    -1.23600
O111        O  0.81379761  0.95475841  0.65401324    -0.85900
O112        O  0.70880409  0.91703598  0.65826661    -0.82900
C113        C  0.66322673  0.89934508  0.64839343     0.97600
O114        O  0.64487508  0.86426434  0.62798941    -0.83000
O115        O  0.68883817  0.91014311  0.57186791    -0.85600
C116        C  0.72387116  0.93355457  0.55179791     1.02100
O117        O  0.76458098  0.93056372  0.55252611    -0.78400
O118        O  0.81600852  0.98308747  0.60627672    -0.78600
C119        C  0.83077969  0.99172340  0.63432001     1.02100
O120        O  0.79382476  0.84974305  0.65073491    -0.85900
O121        O  0.68931351  0.81307806  0.66092551    -0.82900
C122        C  0.66793522  0.77531818  0.64257733     0.97600
O123        O  0.66781288  0.78302934  0.61373839    -0.83000
O124        O  0.70586783  0.82542648  0.55676151    -0.85600
C125        C  0.74647559  0.82221338  0.55389833     1.02100
O126        O  0.78621138  0.85075870  0.56959906    -0.78400
O127        O  0.84700804  0.90833010  0.61753914    -0.78500
C128        C  0.83764028  0.87349506  0.63763792     1.02000
Cr129      Cr  0.75059482  0.88346754  0.65287570     1.93700
Cr130      Cr  0.68147248  0.84835690  0.59412568     1.93200
Cr131      Cr  0.79904772  0.91579961  0.58815728     1.39100
O132        O  0.74336352  0.88272946  0.61175056    -1.23600
O133        O  0.45624806  0.85146680  0.31198006    -0.85900
O134        O  0.53769051  0.95120307  0.31403791    -0.82900
C135        C  0.56953353  0.99689371  0.30589975     0.97600
O136        O  0.55612789  0.02081465  0.28701322    -0.83000
O137        O  0.54686096  0.97137541  0.23120526    -0.85600
C138        C  0.52773875  0.93392665  0.21260776     1.02100
O139        O  0.47935910  0.90432883  0.21154524    -0.78400
O140        O  0.46974606  0.84397868  0.26251435    -0.78600
C141        C  0.46738654  0.82976852  0.29054368     1.02100
O142        O  0.38534044  0.89030482  0.31456264    -0.85900
O143        O  0.46689426  0.98951980  0.32135759    -0.82900
C144        C  0.45283694  0.01538800  0.30453147     0.97600
O145        O  0.45878781  0.01675145  0.27525340    -0.83000
O146        O  0.45508214  0.97795141  0.21635312    -0.85600
C147        C  0.40757031  0.94436588  0.21399185     1.02100
O148        O  0.38813194  0.90486795  0.23129556    -0.78400
O149        O  0.37261078  0.83538999  0.27753761    -0.78500
C150        C  0.35587438  0.84935758  0.30025089     1.02000
Cr151      Cr  0.46201548  0.92160189  0.31238474     1.93700
Cr152      Cr  0.50158910  0.99234500  0.25378714     1.93200
Cr153      Cr  0.43004522  0.87623285  0.24744688     1.39100
O154        O  0.46456195  0.93009746  0.27133185    -1.23600
O155        O  0.20537721  0.72314874  0.02592993    -0.85900
O156        O  0.12873836  0.74751127  0.02026987    -0.82900
C157        C  0.09741926  0.76139522  0.02910531     0.97600
O158        O  0.11223893  0.79981435  0.04695693    -0.83000
O159        O  0.11868714  0.76033533  0.10430386    -0.85600
C160        C  0.13591746  0.74183245  0.12440154     1.02100
O161        O  0.18365430  0.75700944  0.12529576    -0.78400
O162        O  0.18666396  0.70214933  0.07534008    -0.78600
C163        C  0.19080205  0.68985224  0.04792790     1.02100
O164        O  0.28179085  0.83277413  0.02300261    -0.85900
O165        O  0.20517676  0.85649822  0.01269125    -0.82900
C166        C  0.22025265  0.89568418  0.02985197     0.97600
O167        O  0.21271169  0.89028849  0.05888569    -0.83000
O168        O  0.21551552  0.85606928  0.11738201    -0.85600
C169        C  0.26257019  0.86740793  0.11943311     1.02100
O170        O  0.27880092  0.84321368  0.10367414    -0.78400
O171        O  0.28734351  0.78407560  0.05935564    -0.78500
C172        C  0.30823786  0.81810740  0.03826453     1.02000
Cr173      Cr  0.20471736  0.79043143  0.02332197     1.93700
Cr174      Cr  0.16689635  0.82460543  0.08061056     1.93200
Cr175      Cr  0.23174626  0.77323144  0.08916336     1.39100
O176        O  0.20081053  0.79601454  0.06422148    -1.23600
O177        O  0.15565810  0.62718041  0.32945296    -0.85900
O178        O  0.05142909  0.58965081  0.32979054    -0.82900
C179        C  0.00687984  0.57225483  0.31846760     0.97600
O180        O  0.98909958  0.53544218  0.29921305    -0.83000
O181        O  0.03978617  0.58071595  0.24381659    -0.85600
C182        C  0.07609323  0.60076148  0.22411439     1.02100
O183        O  0.11533933  0.59566872  0.22732146    -0.78400
O184        O  0.16133144  0.65024825  0.28024190    -0.78600
C185        C  0.17270679  0.66231435  0.30840275     1.02100
O186        O  0.13390839  0.51982795  0.33023785    -0.85900
O187        O  0.02971588  0.48463177  0.33600789    -0.82900
C188        C  0.01042322  0.44663691  0.31765647     0.97600
O189        O  0.01223592  0.45360061  0.28864752    -0.83000
O190        O  0.05581853  0.49422201  0.23213507    -0.85600
C191        C  0.09709711  0.49187274  0.23077707     1.02100
O192        O  0.13251522  0.51544259  0.25025551    -0.78400
O193        O  0.19113774  0.57647240  0.29800124    -0.78500
C194        C  0.17784760  0.54005452  0.31748689     1.02000
Cr195      Cr  0.09224818  0.55501443  0.32855136     1.93700
Cr196      Cr  0.02835782  0.51834458  0.26766543     1.93200
Cr197      Cr  0.14592413  0.58234488  0.26551721     1.39100
O198        O  0.08842936  0.55206065  0.28732621    -1.23600
O199        O  0.28276116  0.45024444  0.01993951    -0.85900
O200        O  0.20185052  0.34928619  0.01539166    -0.82900
C201        C  0.21112743  0.31917496  0.03160246     0.97600
O202        O  0.20688909  0.31738244  0.06089748    -0.83000
O203        O  0.22518457  0.35908106  0.11864745    -0.85600
C204        C  0.27356499  0.39119785  0.11866493     1.02100
O205        O  0.29211937  0.43058031  0.10095980    -0.78400
O206        O  0.29851672  0.50405581  0.05787092    -0.78600
C207        C  0.31170255  0.49312139  0.03252337     1.02100
O208        O  0.20892481  0.48410523  0.03012728    -0.85900
O209        O  0.13020784  0.38514712  0.02709080    -0.82900
C210        C  0.09855405  0.34023495  0.03637665     0.97600
O211        O  0.11220449  0.31764799  0.05597695    -0.83000
O212        O  0.13306879  0.37075858  0.11189942    -0.85600
C213        C  0.15857765  0.40679128  0.13075282     1.02100
O214        O  0.20708022  0.43022275  0.12905511    -0.78400
O215        O  0.20473799  0.49171932  0.08099730    -0.78500
C216        C  0.19983041  0.50416339  0.05343703     1.02000
Cr217      Cr  0.20602600  0.41604831  0.02629721     1.93700
Cr218      Cr  0.17177578  0.34569853  0.08553046     1.93200
Cr219      Cr  0.24790120  0.46027047  0.09047094     1.39100
O220        O  0.20871211  0.40705539  0.06700983    -1.23600
O221        O  0.50579057  0.79569466  0.01838373    -0.85900
O222        O  0.60873494  0.86484459  0.01622209    -0.82900
C223        C  0.65383476  0.89165715  0.02667671     0.97600
O224        O  0.67376738  0.87180260  0.04396365    -0.83000
O225        O  0.62482406  0.85917426  0.10062559    -0.85600
C226        C  0.58914792  0.84057738  0.12079056     1.02100
O227        O  0.55271857  0.79472909  0.11827040    -0.78400
O228        O  0.50224114  0.80644889  0.06853094    -0.78600
C229        C  0.49038167  0.81158181  0.04110431     1.02100
O230        O  0.52884741  0.71213630  0.01153136    -0.85900
O231        O  0.63273757  0.78395410  0.00420101    -0.82900
C232        C  0.65755012  0.76779457  0.02025420     0.97600
O233        O  0.65678134  0.76879811  0.04967241    -0.83000
O234        O  0.61508465  0.75745250  0.10842282    -0.85600
C235        C  0.57600591  0.71207216  0.10956293     1.02100
O236        O  0.53713168  0.70092147  0.09282480    -0.78400
O237        O  0.47400023  0.70577832  0.04745410    -0.78500
C238        C  0.48528501  0.68681194  0.02470476     1.02000
Cr239      Cr  0.56976619  0.78882670  0.01553028     1.93700
Cr240      Cr  0.63810802  0.81229626  0.07426640     1.93200
Cr241      Cr  0.52070162  0.75421297  0.07991829     1.39100
O242        O  0.57654038  0.78501330  0.05639720    -1.23600
O243        O  0.37688355  0.50040625  0.32046855    -0.85900
O244        O  0.45160286  0.47292624  0.33069720    -0.82900
C245        C  0.44175035  0.43428878  0.31398543     0.97600
O246        O  0.45090801  0.43998778  0.28513929    -0.83000
O247        O  0.44522223  0.47062308  0.22603729    -0.85600
C248        C  0.39801786  0.45768780  0.22296552     1.02100
O249        O  0.37921658  0.48009635  0.23842965    -0.78400
O250        O  0.36920001  0.54315999  0.28119991    -0.78600
C251        C  0.35072806  0.51569890  0.30537856     1.02100
O252        O  0.45549028  0.60763824  0.31479222    -0.85900
O253        O  0.53070212  0.58101720  0.32275718    -0.82900
C254        C  0.56221481  0.56714084  0.31415908     0.97600
O255        O  0.54828753  0.53110309  0.29483429    -0.83000
O256        O  0.53920029  0.56777296  0.23653158    -0.85600
C257        C  0.51922783  0.58002157  0.21450370     1.02100
O258        O  0.47192641  0.56663122  0.21560485    -0.78400
O259        O  0.46840462  0.62479069  0.26437335    -0.78500
C260        C  0.46778566  0.63909726  0.29193623     1.02000
Cr261      Cr  0.45424758  0.53975820  0.31888896     1.93700
Cr262      Cr  0.49332141  0.50478900  0.26212258     1.93200
Cr263      Cr  0.42482791  0.55201178  0.25201424     1.39100
O264        O  0.45764600  0.53224269  0.27794431    -1.23600
O265        O  0.71957217  0.21532828  0.99319892    -0.85900
O266        O  0.74209225  0.13733568  0.99698327    -0.82900
C267        C  0.75762516  0.10712092  0.98895934     0.97600
O268        O  0.79576979  0.12310119  0.97047041    -0.83000
O269        O  0.75445166  0.13166414  0.91385775    -0.85600
C270        C  0.73881795  0.15098295  0.89318916     1.02100
O271        O  0.75371656  0.19856514  0.89320702    -0.78400
O272        O  0.70045409  0.20492455  0.94323305    -0.78600
C273        C  0.68794821  0.20575319  0.97118145     1.02100
O274        O  0.82699519  0.29000284  0.99764103    -0.85900
O275        O  0.85078383  0.21246546  0.00457403    -0.82900
C276        C  0.89034002  0.22785670  0.98729294     0.97600
O277        O  0.88566261  0.22175550  0.95814305    -0.83000
O278        O  0.85108346  0.22458164  0.89939609    -0.85600
C279        C  0.86483190  0.27185499  0.89622381     1.02100
O280        O  0.84409202  0.29088945  0.91297798    -0.78400
O281        O  0.78616573  0.30235001  0.95895356    -0.78500
C282        C  0.81323812  0.31808451  0.98329311     1.02000
Cr283      Cr  0.78549236  0.21334938  0.99490876     1.93700
Cr284      Cr  0.81964145  0.17764898  0.93689453     1.93200
Cr285      Cr  0.77280146  0.24668766  0.92900120     1.39100
O286        O  0.79264302  0.21268134  0.95378024    -1.23600
O287        O  0.86209515  0.48022019  0.69524485    -0.85900
O288        O  0.96872919  0.52195200  0.68475323    -0.82900
C289        C  0.99187685  0.55773187  0.70403486     0.97600
O290        O  0.98940515  0.54737631  0.73273055    -0.83000
O291        O  0.94820452  0.49553088  0.78809611    -0.85600
C292        C  0.90383707  0.48913634  0.79432571     1.02100
O293        O  0.86504593  0.46103167  0.77765322    -0.78400
O294        O  0.80996186  0.41517037  0.72539480    -0.78600
C295        C  0.81791479  0.45218479  0.70758117     1.02100
O296        O  0.84797388  0.37997630  0.68352929    -0.85900
O297        O  0.95243582  0.42019909  0.68183527    -0.82900
C298        C  0.99712408  0.43554233  0.69261008     0.97600
O299        O  0.01448090  0.46818683  0.71451178    -0.83000
O300        O  0.97117230  0.41695325  0.76991435    -0.85600
C301        C  0.93396408  0.38720576  0.78743090     1.02100
O302        O  0.89034881  0.38333035  0.78466878    -0.78400
O303        O  0.84534910  0.34213474  0.72771472    -0.78500
C304        C  0.83246220  0.33909323  0.69938462     1.02000
Cr305      Cr  0.90867920  0.45065127  0.68971834     1.93700
Cr306      Cr  0.97576858  0.47935860  0.74948131     1.93200
Cr307      Cr  0.85756646  0.40364744  0.75201107     1.39100
O308        O  0.91438410  0.44487390  0.73064825    -1.23600
O309        O  0.77447035  0.50956740  0.00280561    -0.85900
O310        O  0.85212693  0.61028723  0.99866317    -0.82900
C311        C  0.88455609  0.65148997  0.98488837     0.97600
O312        O  0.87092726  0.66774396  0.96153249    -0.83000
O313        O  0.85571672  0.60031775  0.91262760    -0.85600
C314        C  0.83276639  0.55918858  0.89701822     1.02100
O315        O  0.78444297  0.53284556  0.89844108    -0.78400
O316        O  0.78291140  0.48995359  0.95472911    -0.78600
C317        C  0.78891886  0.48718924  0.98362223     1.02100
O318        O  0.69725245  0.54365258  0.99752301    -0.85900
O319        O  0.77714347  0.64477249  0.99626404    -0.82900
C320        C  0.76781447  0.66869265  0.97499700     0.97600
O321        O  0.77498202  0.66320948  0.94654794    -0.83000
O322        O  0.76479302  0.60644141  0.89469795    -0.85600
C323        C  0.71702728  0.57326588  0.89346440     1.02100
O324        O  0.69610518  0.53835139  0.91421969    -0.78400
O325        O  0.68547865  0.47993825  0.96807892    -0.78500
C326        C  0.66756756  0.49958392  0.98639041     1.02000
Cr327      Cr  0.77521130  0.57694108  0.99569242     1.93700
Cr328      Cr  0.81396078  0.63029928  0.93079664     1.93200
Cr329      Cr  0.73974621  0.51478462  0.93556914     1.39100
O330        O  0.77621890  0.57443972  0.95428484    -1.23600
O331        O  0.43829305  0.29168197  0.99018600    -0.85900
O332        O  0.33784210  0.20895137  0.99397217    -0.82900
C333        C  0.31252896  0.22031278  0.97484261     0.97600
O334        O  0.31481467  0.21447048  0.94596493    -0.83000
O335        O  0.35917852  0.21855759  0.88938993    -0.85600
C336        C  0.39060238  0.26647723  0.88704971     1.02100
O337        O  0.42807527  0.28765677  0.90545985    -0.78400
O338        O  0.49496963  0.30778246  0.95303311    -0.78600
C339        C  0.48002462  0.32251529  0.97627158     1.02100
O340        O  0.47785466  0.22198648  0.99028563    -0.85900
O341        O  0.37825898  0.13914880  0.99121510    -0.82900
C342        C  0.33362893  0.10665516  0.98196048     0.97600
O343        O  0.31150080  0.11996915  0.96180458    -0.83000
O344        O  0.36756445  0.13022074  0.90806901    -0.85600
C345        C  0.40523194  0.15018600  0.88923231     1.02100
O346        O  0.43590139  0.19846567  0.88869005    -0.78400
O347        O  0.49335332  0.21377188  0.94106888    -0.78500
C348        C  0.50361080  0.21463452  0.96958701     1.02000
Cr349      Cr  0.40734251  0.21492248  0.98820718     1.93700
Cr350      Cr  0.34284903  0.17365981  0.92790699     1.93200
Cr351      Cr  0.45867448  0.24911491  0.92373593     1.39100
O352        O  0.40315085  0.21251188  0.94684928    -1.23600
O353        O  0.61559527  0.12056440  0.68234647    -0.85900
O354        O  0.53896711  0.01913895  0.68232445    -0.82900
C355        C  0.55597734  0.99808205  0.70112099     0.97600
O356        O  0.55298538  0.00274353  0.73007610    -0.83000
O357        O  0.56198089  0.05176002  0.78559941    -0.85600
C358        C  0.60870805  0.08853479  0.78638432     1.02100
O359        O  0.62428985  0.12466247  0.76647563    -0.78400
O360        O  0.62828888  0.18226308  0.71435894    -0.78600
C361        C  0.64424608  0.16502999  0.69281919     1.02100
O362        O  0.53940261  0.15401382  0.68313628    -0.85900
O363        O  0.46348430  0.05258991  0.68751957    -0.82900
C364        C  0.43402495  0.00871423  0.69919627     0.97600
O365        O  0.45134001  0.98970036  0.71923230    -0.83000
O366        O  0.46468836  0.04774312  0.77206582    -0.85600
C367        C  0.48437768  0.08559446  0.79024427     1.02100
O368        O  0.53115081  0.12065270  0.78692261    -0.78400
O369        O  0.52906607  0.16789366  0.73205384    -0.78500
C370        C  0.52680545  0.17647843  0.70339863     1.02000
Cr371      Cr  0.53936987  0.08630149  0.68698820     1.93700
Cr372      Cr  0.50998192  0.02716550  0.74997860     1.93200
Cr373      Cr  0.57572747  0.14452906  0.74836055     1.39100
O374        O  0.54174919  0.08587774  0.72837339    -1.23600
O375        O  0.49773195  0.38292528  0.68799486    -0.85900
O376        O  0.47139871  0.45924331  0.67909572    -0.82900
C377        C  0.43279152  0.44581076  0.69690584     0.97600
O378        O  0.43830864  0.45305582  0.72586497    -0.83000
O379        O  0.47388172  0.44941510  0.78361208    -0.85600
C380        C  0.46249230  0.40273210  0.78637200     1.02100
O381        O  0.48526335  0.38550480  0.76986896    -0.78400
O382        O  0.54571970  0.37708386  0.72456929    -0.78600
C383        C  0.51462469  0.35727966  0.70230729     1.02100
O384        O  0.60538742  0.46113965  0.68975882    -0.85900
O385        O  0.57917676  0.53649760  0.68463201    -0.82900
C386        C  0.56473425  0.56707861  0.69397413     0.97600
O387        O  0.52780549  0.55186125  0.71326730    -0.83000
O388        O  0.56943758  0.54474354  0.76956667    -0.85600
C389        C  0.58704510  0.52619983  0.78939243     1.02100
O390        O  0.57149501  0.47866663  0.78987374    -0.78400
O391        O  0.62762609  0.47755868  0.73904280    -0.78500
C392        C  0.63898447  0.47450808  0.71110235     1.02000
Cr393      Cr  0.53785001  0.46045909  0.68841984     1.93700
Cr394      Cr  0.50453521  0.49746988  0.74666722     1.93200
Cr395      Cr  0.55575162  0.43214658  0.75397998     1.39100
O396        O  0.53260802  0.46345135  0.72947446    -1.23600
C397        C  0.47413618  0.21787328  0.71232125    -0.20800
C398        C  0.51251930  0.21588050  0.69453310    -0.07400
C399        C  0.54210361  0.25659991  0.67313474     0.13500
C400        C  0.53624069  0.30047191  0.67259924    -0.20900
C401        C  0.50207010  0.30479619  0.69318107    -0.07400
C402        C  0.46896987  0.26191078  0.71215638     0.13500
C403        C  0.43098036  0.26406512  0.73417975    -0.24200
H404        H  0.45077687  0.18641613  0.72832061     0.14700
H405        H  0.56224145  0.33366473  0.65839989     0.14800
C406        C  0.58335918  0.25637149  0.65313461    -0.24200
H407        H  0.40737291  0.22695717  0.74695918     0.05000
H408        H  0.40432802  0.27281594  0.72093028     0.08200
H409        H  0.45228683  0.29430309  0.75165789     0.08200
H410        H  0.56571800  0.22266764  0.63741800     0.08200
H411        H  0.61235904  0.25429711  0.66831889     0.08200
H412        H  0.60380086  0.29179791  0.63840865     0.05000
C413        C  0.41083088  0.35124164  0.86667183    -0.20800
C414        C  0.38854669  0.29825371  0.86119244    -0.07400
C415        C  0.37752257  0.28023842  0.83021232     0.13500
C416        C  0.39639467  0.31634578  0.80556922    -0.20900
C417        C  0.42726328  0.36929878  0.81133383    -0.07400
C418        C  0.43162253  0.38718505  0.84219276     0.13500
C419        C  0.46302168  0.44350205  0.85003311    -0.24200
H420        H  0.41752389  0.36480877  0.89052545     0.14700
H421        H  0.39087883  0.30302402  0.78174555     0.14800
C422        C  0.35037764  0.22360948  0.82281049    -0.24200
H423        H  0.46287794  0.45018066  0.87547715     0.05000
H424        H  0.44678567  0.46517059  0.83797223     0.08200
H425        H  0.50383052  0.45859985  0.84276561     0.08200
H426        H  0.31157988  0.20368127  0.83407387     0.08200
H427        H  0.37363507  0.20650151  0.83132322     0.08200
H428        H  0.34492174  0.21685978  0.79729685     0.05000
C429        C  0.47545110  0.09457504  0.84669421    -0.20800
C430        C  0.45463772  0.08907476  0.81669992    -0.07400
C431        C  0.41032172  0.09383787  0.81233035     0.13500
C432        C  0.39103887  0.10910785  0.83754811    -0.20900
C433        C  0.41458596  0.11852981  0.86697152    -0.07400
C434        C  0.45521540  0.10809596  0.87201279     0.13500
C435        C  0.47891674  0.11230617  0.90365381    -0.24200
H436        H  0.50879011  0.08977756  0.85021545     0.14700
H437        H  0.35964126  0.11682104  0.83380400     0.14800
C438        C  0.38570989  0.08632072  0.78072010    -0.24200
H439        H  0.47746669  0.07545344  0.90966945     0.05000
H440        H  0.45785599  0.11966695  0.92231808     0.08200
H441        H  0.51994055  0.14384346  0.90333528     0.08200
H442        H  0.37162754  0.04626964  0.77287681     0.08200
H443        H  0.41451904  0.11373968  0.76364527     0.08200
H444        H  0.35229909  0.09294454  0.78115322     0.05000
C445        C  0.59416073  0.43052152  0.01659372    -0.20800
C446        C  0.61117638  0.46884290  0.99314781    -0.07400
C447        C  0.57595580  0.46371503  0.96942796     0.13500
C448        C  0.52923807  0.41680988  0.96630090    -0.20900
C449        C  0.51528818  0.37575382  0.98743223    -0.07400
C450        C  0.54589761  0.38448144  0.01437478     0.13500
C451        C  0.52950471  0.34376129  0.03958011    -0.24200
H452        H  0.62066203  0.43430547  0.03503643     0.14700
H453        H  0.50540113  0.41097750  0.94593194     0.14800
C454        C  0.58854106  0.50586953  0.94570346    -0.24200
H455        H  0.55807695  0.35650975  0.05882972     0.05000
H456        H  0.52530709  0.30764039  0.03003237     0.08200
H457        H  0.49175527  0.33555871  0.04950807     0.08200
H458        H  0.59086866  0.49234814  0.92205882     0.08200
H459        H  0.62553929  0.54149058  0.95086968     0.08200
H460        H  0.55752269  0.51602249  0.94585571     0.05000
C461        C  0.64583553  0.57940439  0.86685032    -0.20800
C462        C  0.68824349  0.57136050  0.86513585    -0.07400
C463        C  0.70265011  0.56040265  0.83602826     0.13500
C464        C  0.67223048  0.55413667  0.80991648    -0.20900
C465        C  0.62722926  0.55737534  0.81208054    -0.07400
C466        C  0.61538980  0.57313478  0.84029794     0.13500
C467        C  0.57041157  0.58237424  0.84236769    -0.24200
H468        H  0.63599418  0.58950780  0.88900701     0.14700
H469        H  0.68058844  0.54120895  0.78831563     0.14800
C470        C  0.74719912  0.55048052  0.83269292    -0.24200
H471        H  0.56586054  0.59359121  0.86626936     0.05000
H472        H  0.53400647  0.54726774  0.83596607     0.08200
H473        H  0.57684364  0.61399197  0.82594748     0.08200
H474        H  0.73941807  0.51626915  0.84700749     0.08200
H475        H  0.78384674  0.58469469  0.84006828     0.08200
H476        H  0.75254414  0.54227730  0.80817801     0.05000
C477        C  0.78482400  0.24257909  0.70057626    -0.20800
C478        C  0.79320058  0.28864758  0.68623487    -0.07400
C479        C  0.75791462  0.28517152  0.66271639     0.13500
C480        C  0.70841080  0.24106167  0.66233194    -0.20900
C481        C  0.69734320  0.19812703  0.68095307    -0.07400
C482        C  0.73836058  0.19621431  0.69557418     0.13500
C483        C  0.73275014  0.14509802  0.70448053    -0.24200
H484        H  0.81397439  0.24293793  0.71581488     0.14700
H485        H  0.67807887  0.24066065  0.64828519     0.14800
C486        C  0.77152721  0.32640862  0.63796551    -0.24200
H487        H  0.76693287  0.14979585  0.71756447     0.05000
H488        H  0.72914178  0.12334125  0.68292138     0.08200
H489        H  0.69696168  0.12195068  0.71833359     0.08200
H490        H  0.80630778  0.33248742  0.62494079     0.08200
H491        H  0.77942186  0.36361063  0.64774548     0.08200
H492        H  0.73965185  0.31472333  0.62089549     0.05000
C493        C  0.68109480  0.42649677  0.69710087    -0.20800
C494        C  0.68709555  0.47432863  0.70452076    -0.07400
C495        C  0.73708618  0.51690153  0.70901184     0.13500
C496        C  0.78026540  0.50982413  0.70678414    -0.20900
C497        C  0.77377007  0.46053843  0.70189711    -0.07400
C498        C  0.72301932  0.41828941  0.69689040     0.13500
C499        C  0.70981571  0.36312003  0.69257002    -0.24200
H500        H  0.64242374  0.39384812  0.69386872     0.14700
H501        H  0.81871326  0.54198306  0.71110713     0.14800
C502        C  0.74460089  0.56916499  0.71643662    -0.24200
H503        H  0.68200843  0.33830239  0.71099166     0.05000
H504        H  0.74321554  0.35730317  0.69390504     0.08200
H505        H  0.69144172  0.34952262  0.66945140     0.08200
H506        H  0.72460735  0.56722894  0.73863063     0.08200
H507        H  0.72831770  0.58203998  0.69737856     0.08200
H508        H  0.78621507  0.59840068  0.71896149     0.05000
C509        C  0.90271381  0.57729662  0.85777463    -0.20800
C510        C  0.85898377  0.54138014  0.87500300    -0.07400
C511        C  0.83606028  0.48796887  0.86784099     0.13500
C512        C  0.85407728  0.47311489  0.84224011    -0.20900
C513        C  0.89437121  0.50915334  0.82342735    -0.07400
C514        C  0.92083229  0.56161137  0.83197835     0.13500
C515        C  0.96619649  0.60105209  0.81309114    -0.24200
H516        H  0.92080881  0.61787398  0.86329832     0.14700
H517        H  0.83528593  0.43265420  0.83613404     0.14800
C518        C  0.79200751  0.44537220  0.88645858    -0.24200
H519        H  0.98180513  0.64045020  0.82254544     0.05000
H520        H  0.95419582  0.60126684  0.78858428     0.08200
H521        H  0.99764476  0.59152173  0.81348241     0.08200
H522        H  0.80262293  0.44806050  0.91135583     0.08200
H523        H  0.78304475  0.40649669  0.87871504     0.08200
H524        H  0.75585187  0.44677413  0.88357792     0.05000
C525        C  0.64215000  0.25175263  0.98178398    -0.20800
C526        C  0.63917442  0.20415925  0.97748127    -0.07400
C527        C  0.59051921  0.15878218  0.97548877     0.13500
C528        C  0.54573818  0.16275488  0.97594544    -0.20900
C529        C  0.54902503  0.21095496  0.97802417    -0.07400
C530        C  0.59773137  0.25592308  0.98187247     0.13500
C531        C  0.60496132  0.30929108  0.98405847    -0.24200
H532        H  0.67972123  0.28658809  0.98290653     0.14700
H533        H  0.50825819  0.12838627  0.97298674     0.14800
C534        C  0.58460215  0.10617385  0.97220802    -0.24200
H535        H  0.62924585  0.33355372  0.96424956     0.05000
H536        H  0.62463268  0.32719011  0.00627480     0.08200
H537        H  0.56809149  0.30923523  0.98345547     0.08200
H538        H  0.56236072  0.08152853  0.99243761     0.08200
H539        H  0.62233718  0.10753458  0.97126928     0.08200
H540        H  0.56306591  0.08811448  0.95051067     0.05000
C541        C  0.62117148  0.07494906  0.84274583    -0.20800
C542        C  0.64330473  0.09298709  0.81294920    -0.07400
C543        C  0.69813147  0.12072398  0.81034656     0.13500
C544        C  0.72858291  0.13427405  0.83725978    -0.20900
C545        C  0.70621671  0.12071609  0.86692414    -0.07400
C546        C  0.65209296  0.08898073  0.86977847     0.13500
C547        C  0.62694988  0.07328156  0.90141749    -0.24200
H548        H  0.57942541  0.05321291  0.84520819     0.14700
H549        H  0.77028360  0.15845461  0.83526287     0.14800
C550        C  0.72547256  0.13616908  0.77947813    -0.24200
H551        H  0.58420925  0.04892765  0.89976439     0.05000
H552        H  0.63608520  0.10835049  0.91470327     0.08200
H553        H  0.64192803  0.05109985  0.91422922     0.08200
H554        H  0.71772698  0.16451844  0.76746546     0.08200
H555        H  0.71236920  0.10082189  0.76555977     0.08200
H556        H  0.76815077  0.15473529  0.78192633     0.05000
C557        C  0.85759670  0.41230912  0.97720719    -0.20800
C558        C  0.82444040  0.36864528  0.99509041    -0.07400
C559        C  0.79022269  0.37170018  0.01662193     0.13500
C560        C  0.78318484  0.41477248  0.01559451    -0.20900
C561        C  0.81079614  0.45489699  0.99399010    -0.07400
C562        C  0.85220278  0.45613968  0.97713511     0.13500
C563        C  0.88989870  0.50240163  0.95794503    -0.24200
H564        H  0.88506138  0.41075170  0.96137774     0.14700
H565        H  0.75273461  0.41464481  0.02941028     0.14800
C566        C  0.75862104  0.32802242  0.03908644    -0.24200
H567        H  0.92984261  0.51559194  0.96616234     0.05000
H568        H  0.88312787  0.53542826  0.96006465     0.08200
H569        H  0.88743935  0.49193216  0.93299969     0.08200
H570        H  0.78490584  0.32122543  0.05417912     0.08200
H571        H  0.73302426  0.29231011  0.02627129     0.08200
H572        H  0.73396969  0.33672034  0.05433827     0.05000
C573        C  0.89611841  0.27735035  0.84191199    -0.20800
C574        C  0.89957533  0.30273001  0.87002809    -0.07400
C575        C  0.93032744  0.35723249  0.87078280     0.13500
C576        C  0.95083748  0.38482534  0.84274469    -0.20900
C577        C  0.93991254  0.35944272  0.81407062    -0.07400
C578        C  0.91508558  0.30518513  0.81380044     0.13500
C579        C  0.90504855  0.27676737  0.78348453    -0.24200
H580        H  0.87390049  0.23559044  0.84125789     0.14700
H581        H  0.96982264  0.42660473  0.84278918     0.14800
C582        C  0.93983161  0.38683688  0.90062528    -0.31400
H583        H  0.88539498  0.23435620  0.78731778     0.05000
H584        H  0.94236761  0.28921741  0.77130801     0.08200
H585        H  0.87999761  0.28515153  0.76826790     0.08200
H586        H  0.95555786  0.37150396  0.91860391     0.08200
H587        H  0.90344259  0.38392996  0.90920920     0.08200
H588        H  0.96819493  0.42849843  0.89712335     0.05000
C589        C  0.66280086  0.97794642  0.02847548    -0.20800
C590        C  0.68298885  0.94709229  0.01876917    -0.07400
C591        C  0.72880319  0.96911160  0.00088796     0.13500
C592        C  0.75238214  0.02135558  0.99200072    -0.20900
C593        C  0.73180668  0.05268066  0.00098989    -0.07400
C594        C  0.68692038  0.03057522  0.02042588     0.13500
C595        C  0.66371995  0.06134712  0.03305623    -0.24200
H596        H  0.62783741  0.96057638  0.04259645     0.14700
H597        H  0.78694211  0.03752780  0.97761695     0.14800
C598        C  0.75186407  0.93711009  0.99032907    -0.24200
H599        H  0.62955379  0.03754947  0.04824911     0.05000
H600        H  0.65059419  0.07652181  0.01358910     0.08200
H601        H  0.69274250  0.09360904  0.04734595     0.08200
H602        H  0.72326301  0.90435708  0.97615934     0.08200
H603        H  0.76266828  0.92185280  0.01094642     0.08200
H604        H  0.78720550  0.96005132  0.97588454     0.05000
C605        C  0.73348453  0.75539464  0.02091203    -0.20800
C606        C  0.68926077  0.74841638  0.00507761    -0.07400
C607        C  0.67509940  0.72031218  0.97689802     0.13500
C608        C  0.70360916  0.69735629  0.96661468    -0.20900
C609        C  0.74554659  0.70137056  0.98384038    -0.07400
C610        C  0.76176008  0.73244738  0.01072912     0.13500
C611        C  0.80934822  0.74250324  0.02860510    -0.24200
H612        H  0.74547886  0.77821197  0.04193799     0.14700
H613        H  0.69135211  0.67380977  0.94588117     0.14800
C614        C  0.62859244  0.71188470  0.95842034    -0.24200
H615        H  0.81804652  0.77040124  0.04771610     0.05000
H616        H  0.84313624  0.75912300  0.01258717     0.08200
H617        H  0.80404668  0.70637157  0.03939754     0.08200
H618        H  0.63412274  0.74947857  0.94997546     0.08200
H619        H  0.59328881  0.69211297  0.97324270     0.08200
H620        H  0.62238834  0.68756156  0.93767409     0.05000
C621        C  0.52408646  0.58862327  0.15741860    -0.20800
C622        C  0.54817637  0.60824770  0.18612102    -0.07400
C623        C  0.59063169  0.65888191  0.18718790     0.13500
C624        C  0.60212593  0.69142674  0.16079843    -0.20900
C625        C  0.57275893  0.67370741  0.13324274    -0.07400
C626        C  0.53618714  0.62032662  0.13083586     0.13500
C627        C  0.50847394  0.59633871  0.10080631    -0.24200
H628        H  0.49262486  0.54903271  0.15641498     0.14700
H629        H  0.63191251  0.73161300  0.16247447     0.14800
C630        C  0.62211411  0.67903483  0.21642161    -0.24200
H631        H  0.48676638  0.55359124  0.10250230     0.05000
H632        H  0.53702691  0.60737944  0.08150119     0.08200
H633        H  0.47996078  0.60858146  0.09514036     0.08200
H634        H  0.64118442  0.65620197  0.22179535     0.08200
H635        H  0.59694159  0.67534589  0.23637334     0.08200
H636        H  0.65257904  0.72020188  0.21381865     0.05000
C637        C  0.00557944  0.27373989  0.04210071    -0.20800
C638        C  0.04512758  0.31294682  0.02381552    -0.07400
C639        C  0.03310768  0.32345666  0.99356821     0.13500
C640        C  0.98243355  0.29424836  0.98253235    -0.20900
C641        C  0.94291948  0.25528898  0.00081788    -0.07400
C642        C  0.95455786  0.24511287  0.03117039     0.13500
C643        C  0.91404419  0.20346953  0.05190121    -0.24200
H644        H  0.01457111  0.26561712  0.06524718     0.14700
H645        H  0.97338996  0.30255234  0.95943394     0.14800
C646        C  0.07324309  0.36436400  0.97222900    -0.24200
H647        H  0.93086725  0.19889737  0.07400613     0.05000
H648        H  0.89587067  0.16595472  0.03968058     0.08200
H649        H  0.88403565  0.21333519  0.05820617     0.08200
H650        H  0.10558007  0.35675330  0.96841499     0.08200
H651        H  0.08807203  0.40306120  0.98253884     0.08200
H652        H  0.05704612  0.36511754  0.94900804     0.05000
C653        C  0.25588888  0.22278478  0.01583772    -0.20800
C654        C  0.28014858  0.24072225  0.98675997    -0.07400
C655        C  0.27647739  0.28050868  0.97102053     0.13500
C656        C  0.25118760  0.30324576  0.98573837    -0.20900
C657        C  0.22978261  0.28771149  0.01582601    -0.07400
C658        C  0.23048880  0.24542459  0.03059115     0.13500
C659        C  0.20493598  0.22358718  0.06178009    -0.24200
H660        H  0.25792669  0.19152649  0.02745657     0.14700
H661        H  0.25036978  0.33513572  0.97412512     0.14800
C662        C  0.30154388  0.30143442  0.93957666    -0.24200
H663        H  0.20577820  0.18795941  0.06809607     0.05000
H664        H  0.16374582  0.21352032  0.06099687     0.08200
H665        H  0.22550846  0.25183447  0.08050985     0.08200
H666        H  0.28356226  0.27087325  0.92175643     0.08200
H667        H  0.34370033  0.31552499  0.94086927     0.08200
H668        H  0.29673372  0.33418186  0.93161110     0.05000
C669        C  0.45147376  0.59271935  0.02171688    -0.20800
C670        C  0.44559725  0.63519646  0.01404838    -0.07400
C671        C  0.39669933  0.62643776  0.00413802     0.13500
C672        C  0.35401796  0.57630465  0.00535850    -0.20900
C673        C  0.35844519  0.53488164  0.01713030    -0.07400
C674        C  0.40811103  0.54255493  0.02367476     0.13500
C675        C  0.41447867  0.49846908  0.03497330    -0.24200
H676        H  0.48899767  0.59939457  0.02920978     0.14700
H677        H  0.31596495  0.57045749  0.00011871     0.14800
C678        C  0.38755665  0.66967710  0.99429874    -0.24200
H679        H  0.45551973  0.51094723  0.04020348     0.05000
H680        H  0.40054034  0.46824872  0.01686412     0.08200
H681        H  0.39127532  0.48186343  0.05647531     0.08200
H682        H  0.42378621  0.70751817  0.99303114     0.08200
H683        H  0.36081322  0.67246405  0.01112437     0.08200
H684        H  0.36982150  0.66172521  0.97075637     0.05000
C685        C  0.39083369  0.43181573  0.16805922    -0.20800
C686        C  0.36733524  0.42286256  0.19755740    -0.07400
C687        C  0.31370449  0.38759307  0.20029756     0.13500
C688        C  0.28371752  0.37076654  0.17319852    -0.20900
C689        C  0.30639848  0.38845350  0.14363559    -0.07400
C690        C  0.36088425  0.41427001  0.14100327     0.13500
C691        C  0.38840860  0.42517446  0.11013297    -0.24200
H692        H  0.43245733  0.45601429  0.16580855     0.14700
H693        H  0.24195472  0.34807293  0.17551792     0.14800
C694        C  0.28676398  0.36753635  0.23114838    -0.24200
H695        H  0.41470746  0.40900443  0.11034669     0.05000
H696        H  0.41178055  0.46746587  0.10633499     0.08200
H697        H  0.36122649  0.40720341  0.09046452     0.08200
H698        H  0.31281504  0.38525433  0.25127943     0.08200
H699        H  0.27099842  0.32522272  0.23253644     0.08200
H700        H  0.25392344  0.37473141  0.23280065     0.05000
C701        C  0.21280230  0.48553060  0.30119349    -0.20800
C702        C  0.21357179  0.52027103  0.32303709    -0.07400
C703        C  0.25533066  0.54371108  0.34412800     0.13500
C704        C  0.29810395  0.53650175  0.34039598    -0.20900
C705        C  0.29964871  0.50608471  0.31623059    -0.07400
C706        C  0.25541671  0.47836606  0.29750109     0.13500
C707        C  0.25413371  0.44295654  0.27263292    -0.24200
H708        H  0.18052387  0.46716409  0.28520790     0.14700
H709        H  0.33201058  0.55803613  0.35481688     0.14800
C710        C  0.25680644  0.57806633  0.36985693    -0.24200
H711        H  0.21624576  0.42334023  0.26050969     0.05000
H712        H  0.26068338  0.41299865  0.28360553     0.08200
H713        H  0.28461728  0.46500509  0.25489095     0.08200
H714        H  0.26192915  0.56304623  0.39257192     0.08200
H715        H  0.22046253  0.57945249  0.37136554     0.08200
H716        H  0.28996030  0.61765757  0.36604991     0.05000
C717        C  0.16722485  0.47757262  0.16239365    -0.20800
C718        C  0.13583217  0.42563156  0.15434435    -0.07400
C719        C  0.08839656  0.39532863  0.17038774     0.13500
C720        C  0.07489770  0.41781786  0.19487579    -0.20900
C721        C  0.10865842  0.46909739  0.20384338    -0.07400
C722        C  0.15514497  0.49936667  0.18699448     0.13500
C723        C  0.19297139  0.55513635  0.19449963    -0.24200
H724        H  0.20286921  0.50166616  0.14960620     0.14700
H725        H  0.03911408  0.39492808  0.20774980     0.14800
C726        C  0.05333778  0.33947006  0.16268440    -0.24200
H727        H  0.22559527  0.57310715  0.17753339     0.05000
H728        H  0.21023732  0.55809050  0.21784346     0.08200
H729        H  0.17328412  0.57805315  0.19368481     0.08200
H730        H  0.07441790  0.31798518  0.16582333     0.08200
H731        H  0.04017892  0.33607260  0.13814403     0.08200
H732        H  0.01853930  0.32129952  0.17802319     0.05000
C733        C  0.02129530  0.76062448  0.00484511    -0.20800
C734        C  0.04312048  0.73287360  0.01790614    -0.07400
C735        C  0.01286435  0.67840332  0.01992256     0.13500
C736        C  0.96126356  0.65332592  0.00951052    -0.20900
C737        C  0.93932459  0.68090015  0.99601388    -0.07400
C738        C  0.97041230  0.73547322  0.99321133     0.13500
C739        C  0.95045404  0.76792587  0.97841638    -0.24200
H740        H  0.04474330  0.80226969  0.00305774     0.14700
H741        H  0.93817918  0.61166715  0.01136859     0.14800
C742        C  0.03437701  0.64651813  0.03370091    -0.24200
H743        H  0.97899841  0.80980570  0.97982438     0.05000
H744        H  0.91470057  0.76080718  0.99054684     0.08200
H745        H  0.94237667  0.75847549  0.95333555     0.08200
H746        H  0.04819399  0.65938415  0.05779631     0.08200
H747        H  0.06697470  0.65059049  0.01914180     0.08200
H748        H  0.00476460  0.60487081  0.03479862     0.05000
C749        C  0.26373332  0.01465572  0.97762770    -0.20800
C750        C  0.30601266  0.05260159  0.99456457    -0.07400
C751        C  0.31964657  0.03788828  0.02302758     0.13500
C752        C  0.29063382  0.98649157  0.03359063    -0.20900
C753        C  0.24869382  0.94882215  0.01655900    -0.07400
C754        C  0.23515732  0.96311384  0.98813789     0.13500
C755        C  0.18962069  0.92476471  0.96933737    -0.24200
H756        H  0.25287295  0.02526233  0.95584296     0.14700
H757        H  0.30113708  0.97540468  0.05536121     0.14800
C758        C  0.36385899  0.07576294  0.04293579    -0.24200
H759        H  0.18288743  0.94316026  0.94860435     0.05000
H760        H  0.15402430  0.90740602  0.98398308     0.08200
H761        H  0.19666257  0.89394502  0.96086920     0.08200
H762        H  0.35762473  0.10798083  0.04954050     0.08200
H763        H  0.40098341  0.09092952  0.03001372     0.08200
H764        H  0.36733524  0.05757316  0.06484128     0.05000
C765        C  0.15040321  0.59768928  0.06333281    -0.20800
C766        C  0.18404408  0.63790387  0.04308102    -0.07400
C767        C  0.21642878  0.62962202  0.02270087     0.13500
C768        C  0.21753719  0.58353562  0.02518776    -0.20900
C769        C  0.18861782  0.54631900  0.04808825    -0.07400
C770        C  0.15249438  0.55209555  0.06624089     0.13500
C771        C  0.11604137  0.51038533  0.08849495    -0.24200
H772        H  0.12411491  0.60300806  0.07812344     0.14700
H773        H  0.24397186  0.57818042  0.01055747     0.14800
C774        C  0.25311144  0.67041179  0.00010177    -0.24200
H775        H  0.08741086  0.51946151  0.09863406     0.05000
H776        H  0.13796961  0.50605816  0.10796279     0.08200
H777        H  0.09435058  0.47327667  0.07600207     0.08200
H778        H  0.28122413  0.70480922  0.01327802     0.08200
H779        H  0.23118252  0.68077690  0.98346875     0.08200
H780        H  0.27546434  0.65708834  0.98617898     0.05000
C781        C  0.09750489  0.65227641  0.14183425    -0.20800
C782        C  0.10200720  0.70045948  0.14644811    -0.07400
C783        C  0.08574714  0.71053775  0.17511976     0.13500
C784        C  0.07205630  0.67467440  0.19998273    -0.20900
C785        C  0.07366292  0.62896268  0.19623837    -0.07400
C786        C  0.08281150  0.61608462  0.16614276     0.13500
C787        C  0.07867792  0.56507495  0.15891241    -0.24200
H788        H  0.10875619  0.64408229  0.11957522     0.14700
H789        H  0.06380452  0.68404230  0.22283909     0.14800
C790        C  0.08469398  0.75966612  0.17972146    -0.24200
H791        H  0.05000782  0.54616202  0.14002335     0.05000
H792        H  0.06533595  0.53818473  0.17910830     0.08200
H793        H  0.11676186  0.57131067  0.15089994     0.08200
H794        H  0.05738939  0.76145888  0.16285692     0.08200
H795        H  0.12358202  0.79344970  0.17569511     0.08200
H796        H  0.07191805  0.76200147  0.20368443     0.05000
C797        C  0.42516501  0.81870561  0.00824958    -0.20800
C798        C  0.45366166  0.83085250  0.03617468    -0.07400
C799        C  0.44174836  0.85568883  0.06018866     0.13500
C800        C  0.39641992  0.85841872  0.05792430    -0.20900
C801        C  0.36355230  0.83816530  0.03224608    -0.07400
C802        C  0.38033850  0.82273054  0.00593706     0.13500
C803        C  0.34972401  0.80828867  0.97615023    -0.24200
H804        H  0.43562695  0.80253462  0.98899960     0.14700
H805        H  0.38391592  0.87180967  0.07769911     0.14800
C806        C  0.47472141  0.87746979  0.08893984    -0.24200
H807        H  0.36758744  0.79579489  0.95804558     0.05000
H808        H  0.34817788  0.84224672  0.96691142     0.08200
H809        H  0.30965605  0.77652079  0.98037757     0.08200
H810        H  0.51577815  0.90328240  0.08203696     0.08200
H811        H  0.47128144  0.84605763  0.10448843     0.08200
H812        H  0.46243946  0.90057264  0.10286886     0.05000
C813        C  0.51358960  0.78162384  0.28176372    -0.20800
C814        C  0.47411638  0.78491341  0.29743520    -0.07400
C815        C  0.43786479  0.74231062  0.31566425     0.13500
C816        C  0.43931680  0.69612421  0.31534660    -0.20900
C817        C  0.47564119  0.69137918  0.29700569    -0.07400
C818        C  0.51485280  0.73544128  0.28137499     0.13500
C819        C  0.55790901  0.73384173  0.26420148    -0.24200
H820        H  0.54247477  0.81483254  0.26875002     0.14700
H821        H  0.40967405  0.66248550  0.32775043     0.14800
C822        C  0.39535332  0.74393361  0.33363493    -0.24200
H823        H  0.58807639  0.77278912  0.25603466     0.05000
H824        H  0.54213662  0.70893185  0.24347893     0.08200
H825        H  0.57682928  0.71862670  0.27994321     0.08200
H826        H  0.37115254  0.75188864  0.31740343     0.08200
H827        H  0.41236205  0.77449638  0.35151229     0.08200
H828        H  0.36967807  0.70677809  0.34586599     0.05000
C829        C  0.55506720  0.87220372  0.19917899    -0.20800
C830        C  0.55974648  0.92030814  0.19298547    -0.07400
C831        C  0.58423708  0.94687891  0.16510747     0.13500
C832        C  0.59832896  0.92195824  0.14257087    -0.20900
C833        C  0.58789885  0.87105902  0.14750735    -0.07400
C834        C  0.56879434  0.84721094  0.17700023     0.13500
C835        C  0.56139295  0.79477193  0.18522414    -0.24200
H836        H  0.53695925  0.85229584  0.22076093     0.14700
H837        H  0.61380994  0.94071115  0.12022580     0.14800
C838        C  0.59306938  0.00011077  0.15857579    -0.24200
H839        H  0.54952213  0.78437449  0.20993496     0.05000
H840        H  0.59820130  0.79476378  0.18161629     0.08200
H841        H  0.53032086  0.76423229  0.17105181     0.08200
H842        H  0.61807158  0.02671904  0.17700492     0.08200
H843        H  0.55563226  0.99946046  0.15839149     0.08200
H844        H  0.61240674  0.01535409  0.13564534     0.05000
C845        C  0.29421780  0.78130345  0.33607366    -0.20800
C846        C  0.30219624  0.81404004  0.31049243    -0.07400
C847        C  0.26082654  0.80210069  0.29000496     0.13500
C848        C  0.21519786  0.75435460  0.29287657    -0.20900
C849        C  0.21064015  0.71737471  0.31506798    -0.07400
C850        C  0.24888353  0.73272153  0.33856463     0.13500
C851        C  0.24478562  0.69668784  0.36447040    -0.24200
H852        H  0.32588485  0.79108125  0.35207789     0.14700
H853        H  0.18503465  0.74390951  0.27563411     0.14800
C854        C  0.26613379  0.83803896  0.26365296    -0.24200
H855        H  0.27812177  0.71506206  0.38067239     0.05000
H856        H  0.24428456  0.66272773  0.35427706     0.08200
H857        H  0.20883099  0.68439351  0.37816961     0.08200
H858        H  0.29568791  0.84115005  0.24681760     0.08200
H859        H  0.27758492  0.87670328  0.27301430     0.08200
H860        H  0.22926351  0.82391796  0.25076082     0.05000
C861        C  0.32234492  0.92790331  0.19630778    -0.20800
C862        C  0.37460910  0.94656726  0.18901251    -0.07400
C863        C  0.38998248  0.95262853  0.15737270     0.13500
C864        C  0.35174620  0.93229021  0.13426008    -0.20900
C865        C  0.29882391  0.90511761  0.14219327    -0.07400
C866        C  0.28401277  0.90606116  0.17337675     0.13500
C867        C  0.22818198  0.87868823  0.18337318    -0.24200
H868        H  0.31101392  0.92508140  0.22058248     0.14700
H869        H  0.36317609  0.93305689  0.11015543     0.14800
C870        C  0.44592705  0.97558253  0.14801232    -0.24200
H871        H  0.22372412  0.88346159  0.20864443     0.05000
H872        H  0.21105589  0.83688764  0.17895159     0.08200
H873        H  0.20692053  0.89432447  0.17022665     0.08200
H874        H  0.46148257  0.95156946  0.15760277     0.08200
H875        H  0.46866717  0.01542866  0.15702572     0.08200
H876        H  0.45085420  0.97749554  0.12224884     0.05000
C877        C  0.62011823  0.71251683  0.68526842    -0.20800
C878        C  0.64161653  0.72172440  0.65515375    -0.07400
C879        C  0.63831918  0.67987884  0.63810165     0.13500
C880        C  0.61290303  0.63019758  0.65147365    -0.20900
C881        C  0.59045093  0.62074397  0.68136539    -0.07400
C882        C  0.59452896  0.66278116  0.69860346     0.13500
C883        C  0.57368074  0.65631194  0.73141013    -0.24200
H884        H  0.62300356  0.74453754  0.69844885     0.14700
H885        H  0.61029493  0.59829456  0.63829891     0.14800
C886        C  0.66278653  0.68711602  0.60624121    -0.24200
H887        H  0.58304443  0.69383496  0.74174691     0.05000
H888        H  0.59103796  0.63875863  0.74654799     0.08200
H889        H  0.53090979  0.63170121  0.73146860     0.08200
H890        H  0.70462876  0.71631226  0.60731111     0.08200
H891        H  0.64330968  0.69960932  0.58907815     0.08200
H892        H  0.65936242  0.65076864  0.59750749     0.05000
C893        C  0.57395953  0.95541761  0.65703449    -0.20800
C894        C  0.57983571  0.96816814  0.68887005    -0.07400
C895        C  0.61080328  0.95466519  0.70755625     0.13500
C896        C  0.63601224  0.93097030  0.69363532    -0.20900
C897        C  0.63111748  0.91960126  0.66174219    -0.07400
C898        C  0.59897161  0.93131458  0.64327758     0.13500
C899        C  0.59280741  0.92101952  0.60876584    -0.24200
H900        H  0.55031882  0.96523670  0.64253263     0.14700
H901        H  0.66043516  0.92168115  0.70778773     0.14800
C902        C  0.61914152  0.96599507  0.74199005    -0.24200
H903        H  0.56769027  0.93425532  0.59781574     0.05000
H904        H  0.57483409  0.87903490  0.60457365     0.08200
H905        H  0.63117481  0.94195579  0.59715317     0.08200
H906        H  0.58162495  0.94508955  0.75467301     0.08200
H907        H  0.63740043  0.00814577  0.74579173     0.08200
H908        H  0.64508637  0.95329758  0.75236373     0.05000
C909        C  0.62484908  0.61981590  0.35564493    -0.20800
C910        C  0.61560117  0.59264591  0.32754221    -0.07400
C911        C  0.65769510  0.59148671  0.31285627     0.13500
C912        C  0.70693775  0.61711709  0.32662336    -0.20900
C913        C  0.71578300  0.64361197  0.35478608    -0.07400
C914        C  0.67414122  0.64517092  0.36943610     0.13500
C915        C  0.68174573  0.67524375  0.39889558    -0.24200
H916        H  0.59321893  0.62129137  0.36702704     0.14700
H917        H  0.73900109  0.61633505  0.31529499     0.14800
C918        C  0.65202239  0.56467358  0.28228718    -0.24200
H919        H  0.64575469  0.67467590  0.40614254     0.05000
H920        H  0.71223713  0.71612690  0.39508959     0.08200
H921        H  0.69316556  0.65831217  0.41833006     0.08200
H922        H  0.63699734  0.58049772  0.26418019     0.08200
H923        H  0.62546397  0.52253736  0.28521442     0.08200
H924        H  0.68958168  0.57018361  0.27370086     0.05000
C925        C  0.89833811  0.59751868  0.34254574    -0.20800
C926        C  0.92670362  0.65106336  0.34737362    -0.07400
C927        C  0.98093356  0.67791186  0.34233133     0.13500
C928        C  0.00506005  0.65064125  0.33270060    -0.20900
C929        C  0.97691074  0.59728549  0.32761374    -0.07400
C930        C  0.92269261  0.57030910  0.33239645     0.13500
C931        C  0.89063399  0.51290121  0.32787086    -0.24200
H932        H  0.85690806  0.57694700  0.34658936     0.14700
H933        H  0.04659403  0.67140993  0.32895749     0.14800
C934        C  0.01432382  0.73504466  0.34804929    -0.24200
H935        H  0.84935572  0.49789342  0.33405069     0.05000
H936        H  0.90549535  0.49283459  0.34292808     0.08200
H937        H  0.89225711  0.50353937  0.30306174     0.08200
H938        H  0.00810074  0.74401287  0.37216787     0.08200
H939        H  0.00481421  0.75724182  0.33106815     0.08200
H940        H  0.05618807  0.74844174  0.34528255     0.05000
C941        C  0.74766700  0.76070701  0.47731625    -0.20800
C942        C  0.78487645  0.74660722  0.48411672    -0.07400
C943        C  0.79945540  0.74633612  0.51536913     0.13500
C944        C  0.78140506  0.76630189  0.53848765    -0.20900
C945        C  0.75006892  0.78752140  0.53090108    -0.07400
C946        C  0.73059828  0.78199492  0.50023300     0.13500
C947        C  0.69629014  0.80308866  0.49065977    -0.24200
H948        H  0.73513385  0.75888183  0.45350542     0.14700
H949        H  0.79517059  0.76914327  0.56211035     0.14800
C950        C  0.83735268  0.72915207  0.52403538    -0.24200
H951        H  0.68576107  0.79643320  0.46559935     0.05000
H952        H  0.71719490  0.84523857  0.49451344     0.08200
H953        H  0.65991764  0.78420559  0.50455880     0.08200
H954        H  0.87481990  0.75400606  0.51194885     0.08200
H955        H  0.82169737  0.68841959  0.51709376     0.08200
H956        H  0.84471596  0.73166408  0.54954428     0.05000
C957        C  0.37034583  0.28755067  0.32494662    -0.20800
C958        C  0.37080959  0.28261775  0.35739452    -0.07400
C959        C  0.39624968  0.32737218  0.37570807     0.13500
C960        C  0.41982731  0.37623228  0.36094799    -0.20900
C961        C  0.41888001  0.38149267  0.32825008    -0.07400
C962        C  0.39415471  0.33590971  0.31001956     0.13500
C963        C  0.39098784  0.33682355  0.27485926    -0.24200
H964        H  0.35064970  0.25288403  0.31110828     0.14700
H965        H  0.43856261  0.41050214  0.37513582     0.14800
C966        C  0.39653261  0.32376107  0.41078826    -0.24200
H967        H  0.36852535  0.29745445  0.26508160     0.05000
H968        H  0.43039462  0.35494444  0.26448835     0.08200
H969        H  0.37139519  0.35830033  0.26755363     0.08200
H970        H  0.41645190  0.30253088  0.41810731     0.08200
H971        H  0.35615999  0.30321070  0.41980143     0.08200
H972        H  0.41702701  0.36248938  0.42156305     0.05000
C973        C  0.42503812  0.04073125  0.35286272    -0.20800
C974        C  0.42876881  0.04311507  0.32005896    -0.07400
C975        C  0.40660492  0.06868552  0.30359303     0.13500
C976        C  0.38087064  0.08965265  0.32025614    -0.20900
C977        C  0.37594877  0.08593038  0.35302189    -0.07400
C978        C  0.39902226  0.06121342  0.36949162     0.13500
C979        C  0.39578665  0.05467234  0.40456327    -0.24200
H980        H  0.44185135  0.02158245  0.36587983     0.14700
H981        H  0.36387190  0.10873802  0.30735283     0.14800
C982        C  0.40884340  0.07368462  0.26848877    -0.24200
H983        H  0.41488438  0.03321689  0.41307803     0.05000
H984        H  0.35466285  0.03251126  0.41214105     0.08200
H985        H  0.41555738  0.09299432  0.41582292     0.08200
H986        H  0.38847640  0.03485555  0.25785477     0.08200
H987        H  0.44978324  0.09508487  0.26050338     0.08200
H988        H  0.38987036  0.09517106  0.25981394     0.05000
C989        C  0.07619453  0.88557917  0.36486400    -0.20800
C990        C  0.03088645  0.88856180  0.36192903    -0.07400
C991        C  0.03489269  0.93653457  0.35459307     0.13500
C992        C  0.08355129  0.98109430  0.35458604    -0.20900
C993        C  0.12833495  0.97887923  0.36092829    -0.07400
C994        C  0.12526771  0.93048374  0.36324120     0.13500
C995        C  0.17344405  0.92667223  0.36488415    -0.24200
H996        H  0.07313646  0.84851847  0.36949364     0.14700
H997        H  0.08616155  0.01837290  0.35255911     0.14800
C998        C  0.98795871  0.94198097  0.34965215    -0.24200
H999        H  0.16445820  0.88621343  0.36837839     0.05000
H1000       H  0.19784256  0.95017724  0.38426438     0.08200
H1001       H  0.19571404  0.94181806  0.34279941     0.08200
H1002       H  0.96448274  0.93101354  0.37131883     0.08200
H1003       H  0.96478143  0.91713034  0.33013032     0.08200
H1004       H  0.99858259  0.98228544  0.34365335     0.05000
C1005       C  0.07730647  0.67519726  0.65312132    -0.20800
C1006       C  0.07375212  0.71473840  0.66830310    -0.07400
C1007       C  0.04590528  0.70277599  0.69692757     0.13500
C1008       C  0.02105760  0.65161985  0.70865454    -0.20900
C1009       C  0.02249504  0.61188593  0.69235445    -0.07400
C1010       C  0.05214147  0.62431153  0.66454801     0.13500
C1011       C  0.05846138  0.58443745  0.64689730    -0.24200
H1012       H  0.09948555  0.68390022  0.63166651     0.14700
H1013       H  0.99879829  0.64220498  0.73012225     0.14800
C1014       C  0.04043200  0.74285473  0.71474632    -0.24200
H1015       H  0.08638064  0.60193678  0.62722021     0.05000
H1016       H  0.02095684  0.55533640  0.63680686     0.08200
H1017       H  0.07314425  0.56517670  0.66278548     0.08200
H1018       H  0.02184995  0.75941858  0.69980280     0.08200
H1019       H  0.07908112  0.77389240  0.72230741     0.08200
H1020       H  0.01611455  0.72625118  0.73601407     0.05000
C1021       C  0.30067757  0.97470190  0.66871944    -0.20800
C1022       C  0.27726122  0.92122132  0.66425677    -0.07400
C1023       C  0.30531651  0.89619547  0.67246591     0.13500
C1024       C  0.35574209  0.92537700  0.68465649    -0.20900
C1025       C  0.37945128  0.97909054  0.68825055    -0.07400
C1026       C  0.35109529  0.00391045  0.68033222     0.13500
C1027       C  0.37295704  0.06110432  0.68464185    -0.24200
H1028       H  0.27959423  0.99423988  0.66251757     0.14700
H1029       H  0.37729577  0.90627900  0.69071537     0.14800
C1030       C  0.28229357  0.83883076  0.66903657    -0.24200
H1031       H  0.34378817  0.07287321  0.67970356     0.05000
H1032       H  0.40592156  0.08337160  0.66840182     0.08200
H1033       H  0.38594729  0.07164931  0.70909166     0.08200
H1034       H  0.27507374  0.82836763  0.64404016     0.08200
H1035       H  0.24541591  0.81810388  0.68239223     0.08200
H1036       H  0.30864475  0.82557013  0.67798521     0.05000
C1037       C  0.92872903  0.90882658  0.65148258    -0.20800
C1038       C  0.88069963  0.86473319  0.64622754    -0.07400
C1039       C  0.87804242  0.81646106  0.64343827     0.13500
C1040       C  0.92446584  0.81466407  0.64237657    -0.20900
C1041       C  0.97283160  0.86012215  0.64428464    -0.07400
C1042       C  0.97464385  0.90720980  0.65053773     0.13500
C1043       C  0.02522126  0.95667143  0.65463234    -0.24200
H1044       H  0.93066495  0.94566422  0.65413575     0.14700
H1045       H  0.92310554  0.77847449  0.63788999     0.14800
C1046       C  0.82683603  0.76770891  0.63965678    -0.24200
H1047       H  0.01936663  0.98924700  0.66087312     0.05000
H1048       H  0.04750628  0.96733618  0.63249501     0.08200
H1049       H  0.04783090  0.95179827  0.67358428     0.08200
H1050       H  0.80692371  0.77077729  0.61858482     0.08200
H1051       H  0.80213436  0.76145776  0.66046830     0.08200
H1052       H  0.83168508  0.73350411  0.63717913     0.05000
C1053       C  0.22435556  0.92920490  0.49863025    -0.20800
C1054       C  0.23245606  0.94436749  0.52981157    -0.07400
C1055       C  0.26600151  0.99681411  0.53688875     0.13500
C1056       C  0.28311963  0.03391501  0.51256152    -0.20900
C1057       C  0.26882751  0.01889928  0.48148435    -0.07400
C1058       C  0.24385066  0.96579222  0.47439772     0.13500
C1059       C  0.23584975  0.94653598  0.44153432    -0.24200
H1060       H  0.20013857  0.88869959  0.49314340     0.14700
H1061       H  0.30389595  0.07457622  0.51813564     0.14800
C1062       C  0.28109138  0.01375578  0.57009590    -0.24200
H1063       H  0.25221094  0.92068985  0.43882476     0.05000
H1064       H  0.25587193  0.97848981  0.42433665     0.08200
H1065       H  0.19376157  0.92443849  0.43651863     0.08200
H1066       H  0.30235241  0.99525232  0.57984461     0.08200
H1067       H  0.24636818  0.00237931  0.58472939     0.08200
H1068       H  0.30653467  0.05624026  0.57156320     0.05000
C1069       C  0.05512092  0.77120448  0.49983501    -0.20800
C1070       C  0.03324375  0.75802727  0.52991749    -0.07400
C1071       C  0.97905039  0.72551989  0.53301969     0.13500
C1072       C  0.94775239  0.71249014  0.50637753    -0.20900
C1073       C  0.96917358  0.73178259  0.47680529    -0.07400
C1074       C  0.02355252  0.75896463  0.47321582     0.13500
C1075       C  0.04811440  0.77750433  0.44153220    -0.24200
H1076       H  0.09666052  0.79585585  0.49733338     0.14700
H1077       H  0.90608192  0.69041165  0.50906211     0.14800
C1078       C  0.95298796  0.70621798  0.56430950    -0.24200
H1079       H  0.09104066  0.79822175  0.44276982     0.05000
H1080       H  0.03644501  0.80425913  0.43126390     0.08200
H1081       H  0.03547706  0.74390053  0.42601743     0.08200
H1082       H  0.92725508  0.72221704  0.56904598     0.08200
H1083       H  0.98110220  0.71694036  0.58367021     0.08200
H1084       H  0.92935166  0.66346452  0.56410909     0.05000
C1085       C  0.29296900  0.34763734  0.68132437    -0.20800
C1086       C  0.28247056  0.36878781  0.65471694    -0.07400
C1087       C  0.32171134  0.41728807  0.64290643     0.13500
C1088       C  0.37035436  0.44198288  0.65741915    -0.20900
C1089       C  0.38040629  0.42020834  0.68367800    -0.07400
C1090       C  0.34118178  0.37265300  0.69594708     0.13500
C1091       C  0.35062977  0.34688897  0.72362600    -0.24200
H1092       H  0.26331414  0.31088163  0.69079749     0.14700
H1093       H  0.40087025  0.47854946  0.64822687     0.14800
C1094       C  0.31357786  0.44304228  0.61479531    -0.24200
H1095       H  0.31674604  0.30825035  0.72882255     0.05000
H1096       H  0.35837127  0.37075973  0.74473135     0.08200
H1097       H  0.38433186  0.34184773  0.71882442     0.08200
H1098       H  0.28248403  0.45205372  0.61971027     0.08200
H1099       H  0.30313147  0.41741598  0.59429693     0.08200
H1100       H  0.34903749  0.47994405  0.60861190     0.05000
C1101       C  0.09653322  0.39142912  0.67978324    -0.20800
C1102       C  0.07811852  0.36373258  0.65201990    -0.07400
C1103       C  0.03405529  0.36070650  0.63761827     0.13500
C1104       C  0.01020211  0.38594669  0.65105830    -0.20900
C1105       C  0.02833661  0.41402653  0.67885630    -0.07400
C1106       C  0.07248997  0.41681129  0.69336661     0.13500
C1107       C  0.09420763  0.44535766  0.72335393    -0.24200
H1108       H  0.13023605  0.39353361  0.69077520     0.14700
H1109       H  0.97641076  0.38301862  0.63970803     0.14800
C1110       C  0.01030428  0.32902969  0.60874200    -0.24200
H1111       H  0.12818366  0.44269677  0.73137452     0.05000
H1112       H  0.06436583  0.42864182  0.74206115     0.08200
H1113       H  0.10713932  0.48685904  0.71988060     0.08200
H1114       H  0.00144788  0.28874823  0.61291729     0.08200
H1115       H  0.03714269  0.34601094  0.58857618     0.08200
H1116       H  0.97361835  0.32763892  0.60223133     0.05000
C1117       C  0.93287021  0.13230766  0.62736634    -0.20800
C1118       C  0.97450591  0.13052277  0.64096982    -0.07400
C1119       C  0.96552581  0.08689067  0.65869868     0.13500
C1120       C  0.91560574  0.04355714  0.65961335    -0.20900
C1121       C  0.87499019  0.04286201  0.64264179    -0.07400
C1122       C  0.88284308  0.08933069  0.62879873     0.13500
C1123       C  0.83928994  0.09487065  0.61580903    -0.24200
H1124       H  0.93969550  0.16659792  0.61455299     0.14700
H1125       H  0.90951742  0.00870967  0.67129276     0.14800
C1126       C  0.00919304  0.08508383  0.67508729    -0.24200
H1127       H  0.84027951  0.12931722  0.62592761     0.05000
H1128       H  0.80129177  0.06125097  0.62226730     0.08200
H1129       H  0.84360665  0.09993377  0.59008173     0.08200
H1130       H  0.02792695  0.11755792  0.69166404     0.08200
H1131       H  0.03819023  0.08825156  0.65768323     0.08200
H1132       H  0.99535091  0.04851091  0.68847629     0.05000
C1133       C  0.16700699  0.10821279  0.59365789    -0.20800
C1134       C  0.16044974  0.12795327  0.62181867    -0.07400
C1135       C  0.15843592  0.10175726  0.64997590     0.13500
C1136       C  0.15695741  0.05391811  0.64866130    -0.20900
C1137       C  0.15702247  0.03131517  0.61997492    -0.07400
C1138       C  0.16396021  0.06029412  0.59202444     0.13500
C1139       C  0.16485158  0.04078055  0.55971208    -0.24200
H1140       H  0.17091572  0.12873634  0.57194905     0.14700
H1141       H  0.15329633  0.03298234  0.67016701     0.14800
C1142       C  0.15796450  0.12359591  0.68137427    -0.24200
H1143       H  0.17014770  0.06903261  0.54103771     0.05000
H1144       H  0.12750319  0.00531095  0.55489719     0.08200
H1145       H  0.19741967  0.03330959  0.55752814     0.08200
H1146       H  0.12200649  0.12522079  0.68452292     0.08200
H1147       H  0.19210502  0.16294194  0.68335104     0.08200
H1148       H  0.15969675  0.09955910  0.70073187     0.05000
C1149       C  0.24948953  0.23753821  0.53890379    -0.20800
C1150       C  0.23175045  0.26900976  0.52587508    -0.07400
C1151       C  0.23786573  0.27998115  0.49351514     0.13500
C1152       C  0.25789957  0.25600554  0.47462304    -0.20900
C1153       C  0.27058585  0.22038731  0.48730444    -0.07400
C1154       C  0.26806115  0.21235672  0.51992615     0.13500
C1155       C  0.28344416  0.17608197  0.53460307    -0.24200
H1156       H  0.24488295  0.22929351  0.56375416     0.14700
H1157       H  0.25980206  0.26212112  0.44955298     0.14800
C1158       C  0.22160846  0.31500351  0.47815273    -0.24200
H1159       H  0.27973789  0.17483212  0.56043604     0.05000
H1160       H  0.32435347  0.18899018  0.52861044     0.08200
H1161       H  0.25844175  0.13636637  0.52596311     0.08200
H1162       H  0.20768085  0.33289113  0.49525177     0.08200
H1163       H  0.19028160  0.29285108  0.46116771     0.08200
H1164       H  0.25517080  0.34664651  0.46552549     0.05000
C1165       C  0.96679090  0.30472251  0.32780895    -0.20800
C1166       C  0.92975837  0.28972608  0.35181805    -0.07400
C1167       C  0.92090708  0.32775170  0.36541409     0.13500
C1168       C  0.94875665  0.37897763  0.35431929    -0.20900
C1169       C  0.98454851  0.39315365  0.32983673    -0.07400
C1170       C  0.99414489  0.35566784  0.31662699     0.13500
C1171       C  0.03437598  0.36932597  0.29135466    -0.24200
H1172       H  0.97434064  0.27628074  0.31746575     0.14700
H1173       H  0.94179915  0.40802173  0.36437380     0.14800
C1174       C  0.88309149  0.31546607  0.39189297    -0.24200
H1175       H  0.03932630  0.33604567  0.28544255     0.05000
H1176       H  0.07239278  0.40113010  0.29927002     0.08200
H1177       H  0.02271901  0.38130407  0.26968359     0.08200
H1178       H  0.89371643  0.29899600  0.41197420     0.08200
H1179       H  0.84323707  0.28778948  0.38410108     0.08200
H1180       H  0.88297868  0.35041546  0.40016835     0.05000
C1181       C  0.66375558  0.06068559  0.30075860    -0.20800
C1182       C  0.62257206  0.02330623  0.31905880    -0.07400
C1183       C  0.63270758  0.01305448  0.34979278     0.13500
C1184       C  0.68310481  0.04081448  0.36138691    -0.20900
C1185       C  0.72424278  0.07856899  0.34336569    -0.07400
C1186       C  0.71457044  0.08816446  0.31239598     0.13500
C1187       C  0.75692403  0.12816650  0.29185211    -0.24200
H1188       H  0.65612558  0.06839842  0.27716199     0.14700
H1189       H  0.69042025  0.03296437  0.38502110     0.14800
C1190       C  0.59061551  0.97442274  0.37118198    -0.24200
H1191       H  0.74189654  0.13197160  0.26885245     0.05000
H1192       H  0.78666842  0.11708736  0.28746735     0.08200
H1193       H  0.77503338  0.16634009  0.30329912     0.08200
H1194       H  0.57447693  0.93494602  0.36181197     0.08200
H1195       H  0.55947126  0.98416047  0.37355423     0.08200
H1196       H  0.60535599  0.97409860  0.39494572     0.05000
C1197       C  0.82137241  0.93885637  0.39130879    -0.20800
C1198       C  0.84717198  0.97492223  0.36731352    -0.07400
C1199       C  0.86523121  0.96011103  0.34104055     0.13500
C1200       C  0.86042364  0.91082562  0.34089139    -0.20900
C1201       C  0.83882124  0.87685069  0.36648472    -0.07400
C1202       C  0.81595664  0.88984386  0.39085595     0.13500
C1203       C  0.78774233  0.85345025  0.41752372    -0.24200
H1204       H  0.80810765  0.95004096  0.41166860     0.14700
H1205       H  0.87789265  0.90086325  0.32205540     0.14800
C1206       C  0.89369583  0.99644832  0.31427871    -0.24200
H1207       H  0.74849476  0.84857316  0.41985710     0.05000
H1208       H  0.80921795  0.86915332  0.43959274     0.08200
H1209       H  0.78274657  0.81479625  0.41350089     0.08200
H1210       H  0.93346050  0.00244774  0.31261587     0.08200
H1211       H  0.89695668  0.03469810  0.31675522     0.08200
H1212       H  0.87303418  0.97939195  0.29217419     0.05000
C1213       C  0.97326235  0.23918467  0.53712626    -0.20800
C1214       C  0.02541686  0.26859750  0.52793366    -0.07400
C1215       C  0.03735558  0.28659171  0.49667998     0.13500
C1216       C  0.99717179  0.26848668  0.47466430    -0.20900
C1217       C  0.94634167  0.23177851  0.48323053    -0.07400
C1218       C  0.93364003  0.21968863  0.51505304     0.13500
C1219       C  0.87878237  0.18343772  0.52554019    -0.24200
H1220       H  0.96385266  0.22695168  0.56131698     0.14700
H1221       H  0.00638647  0.27824984  0.45017257     0.14800
C1222       C  0.09234011  0.32048531  0.48578001    -0.24200
H1223       H  0.87544511  0.18003557  0.55138356     0.05000
H1224       H  0.86527711  0.14435310  0.51627905     0.08200
H1225       H  0.85316538  0.19785726  0.51702371     0.08200
H1226       H  0.11442000  0.30019117  0.48946234     0.08200
H1227       H  0.11060010  0.35704239  0.49899443     0.08200
H1228       H  0.09446892  0.33031638  0.46055038     0.05000
C1229       C  0.70911152  0.94528091  0.49636875    -0.20800
C1230       C  0.71881792  0.96477128  0.52668290    -0.07400
C1231       C  0.73676297  0.01758900  0.53100134     0.13500
C1232       C  0.75505739  0.05137780  0.50516060    -0.20900
C1233       C  0.75415020  0.03253586  0.47520350    -0.07400
C1234       C  0.72537737  0.97873366  0.47037869     0.13500
C1235       C  0.71137138  0.95679285  0.43804760    -0.24200
H1236       H  0.69122247  0.90416201  0.49304537     0.14700
H1237       H  0.77386687  0.09257714  0.50875287     0.14800
C1238       C  0.73926016  0.03815032  0.56305126    -0.24200
H1239       H  0.68848442  0.91397296  0.43865949     0.05000
H1240       H  0.74622715  0.96840913  0.42367496     0.08200
H1241       H  0.68764130  0.97116020  0.42654029     0.08200
H1242       H  0.76151220  0.02636846  0.57818095     0.08200
H1243       H  0.69953828  0.02154583  0.57271088     0.08200
H1244       H  0.75782975  0.08086706  0.56295818     0.05000
C1245       C  0.05552516  0.15043836  0.35926108    -0.20800
C1246       C  0.03878762  0.16269497  0.38692294    -0.07400
C1247       C  0.07347259  0.18116000  0.41253166     0.13500
C1248       C  0.11958811  0.17962060  0.41119720    -0.20900
C1249       C  0.13274712  0.16027139  0.38516675    -0.07400
C1250       C  0.10222831  0.14951774  0.35788270     0.13500
C1251       C  0.11753322  0.13612462  0.32740882    -0.24200
H1252       H  0.03067880  0.13878763  0.33897884     0.14700
H1253       H  0.14431079  0.19120210  0.43155435     0.14800
C1254       C  0.06258801  0.20187504  0.44176294    -0.24200
H1255       H  0.09017389  0.13127728  0.30841245     0.05000
H1256       H  0.11779654  0.09943054  0.32970155     0.08200
H1257       H  0.15653289  0.16760585  0.32023832     0.08200
H1258       H  0.02978827  0.17058733  0.45503221     0.08200
H1259       H  0.05401543  0.23278675  0.43540498     0.08200
H1260       H  0.09625287  0.21878732  0.45776144     0.05000
loop_ 
_geom_bond_atom_site_label_1 
_geom_bond_atom_site_label_2 
_geom_bond_distance 
_geom_bond_site_symmetry_2 
_ccdc_geom_bond_type 
O1          Cr19   1.992       .  S
O1            C9   1.260       .  A
O2          Cr19   2.025       .  S
O2            C3   1.271       .  A
C3            O4   1.260       .  A
C3         C1185   1.485       .  S
O4          Cr20   1.956       .  S
O5          Cr20   2.025       .  S
O5            C6   1.268       .  A
C6            O7   1.259       .  A
C6         C1233   1.478       .  S
O7          Cr21   1.970       .  S
O8          Cr21   1.993       .  S
O8            C9   1.261       .  A
C9         C1198   1.476   1_545  S
O10         Cr19   2.030       .  S
O10          C18   1.273       .  A
O11         Cr19   1.977       .  S
O11          C12   1.260       .  A
C12          O13   1.263       .  A
C12        C1166   1.490       .  S
O13         Cr20   2.003       .  S
O14         Cr20   1.988       .  S
O14          C15   1.259       .  A
C15          O16   1.263       .  A
C15        C1217   1.469       .  S
O16         Cr21   1.999       .  S
O17         Cr21   1.967       .  S
O17          C18   1.259       .  A
C18        C1246   1.497   1_655  S
Cr19         O22   1.771       .  S
Cr20         O22   1.772       .  S
Cr21         O22   1.754       .  S
O23         Cr41   2.047       .  S
O23          C31   1.275       .  A
O24         Cr41   1.962       .  S
O24          C25   1.258       .  A
C25          O26   1.265       .  A
C25        C1086   1.488       .  S
O26         Cr42   2.010       .  S
O27         Cr42   1.998       .  S
O27          C28   1.259       .  A
C28          O29   1.260       .  A
C28        C1150   1.473       .  S
O29         Cr43   2.000       .  S
O30         Cr43   1.949       .  S
O30          C31   1.258       .  A
C31        C1134   1.497       .  S
O32         Cr41   1.982       .  S
O32          C40   1.256       .  A
O33         Cr41   2.028       .  S
O33          C34   1.273       .  A
C34          O35   1.260       .  A
C34        C1102   1.483       .  S
O35         Cr42   1.961       .  S
O36         Cr42   2.036       .  S
O36          C37   1.273       .  A
C37          O38   1.259       .  A
C37        C1214   1.481       .  S
O38         Cr43   1.953       .  S
O39         Cr43   1.998       .  S
O39          C40   1.260       .  A
C40        C1118   1.465   1_455  S
Cr41         O44   1.767       .  S
Cr42         O44   1.769       .  S
Cr43         O44   1.752       .  S
O45         Cr63   1.997       .  S
O45          C53   1.260       .  A
O46         Cr63   2.032       .  S
O46          C47   1.274       .  A
C47          O48   1.263       .  A
C47        C1006   1.498       .  S
O48         Cr64   1.965       .  S
O49         Cr64   2.047       .  S
O49          C50   1.275       .  A
C50          O51   1.259       .  A
C50        C1070   1.481       .  S
O51         Cr65   1.963       .  S
O52         Cr65   1.998       .  S
O52          C53   1.261       .  A
C53        C1041   1.480   1_455  S
O54         Cr63   2.041       .  S
O54          C62   1.275       .  A
O55         Cr63   1.971       .  S
O55          C56   1.258       .  A
C56          O57   1.266       .  A
C56        C1022   1.494       .  S
O57         Cr64   2.021       .  S
O58         Cr64   1.995       .  S
O58          C59   1.258       .  A
C59          O60   1.262       .  A
C59        C1054   1.472       .  S
O60         Cr65   2.002       .  S
O61         Cr65   1.952       .  S
O61          C62   1.254       .  A
C62        C1137   1.497   1_565  S
Cr63         O66   1.771       .  S
Cr64         O66   1.772       .  S
Cr65         O66   1.755       .  S
O67         Cr85   2.034       .  S
O67          C75   1.273       .  A
O68         Cr85   1.965       .  S
O68          C69   1.257       .  A
C69          O70   1.265       .  A
C69         C958   1.477       .  S
O70         Cr86   2.012       .  S
O71         Cr86   1.991       .  S
O71          C72   1.258       .  A
C72          O73   1.260       .  A
C72        C1153   1.474       .  S
O73         Cr87   2.001       .  S
O74         Cr87   1.967       .  S
O74          C75   1.262       .  A
C75        C1249   1.497       .  S
O76         Cr85   1.992       .  S
O76          C84   1.258       .  A
O77         Cr85   2.020       .  S
O77          C78   1.272       .  A
C78          O79   1.262       .  A
C78         C977   1.503       .  S
O79         Cr86   1.976       .  S
O80         Cr86   2.038       .  S
O80          C81   1.273       .  A
C81          O82   1.262       .  A
C81        C1057   1.485       .  S
O82         Cr87   1.968       .  S
O83         Cr87   1.992       .  S
O83          C84   1.261       .  A
C84         C993   1.472   1_545  S
Cr85         O88   1.773       .  S
Cr86         O88   1.773       .  S
Cr87         O88   1.761       .  S
O89        Cr107   2.015       .  S
O89          C97   1.265       .  A
O90        Cr107   1.964       .  S
O90          C91   1.259       .  A
C91          O92   1.269       .  A
C91         C926   1.482       .  S
O92        Cr108   2.017       .  S
O93        Cr108   1.998       .  S
O93          C94   1.262       .  A
C94          O95   1.263       .  A
C94        C1073   1.479       .  S
O95        Cr109   2.000       .  S
O96        Cr109   1.978       .  S
O96          C97   1.258       .  A
C97         C990   1.474   1_655  S
O98        Cr107   1.991       .  S
O98         C106   1.262       .  A
O99        Cr107   2.008       .  S
O99         C100   1.265       .  A
C100        O101   1.260       .  A
C100        C913   1.486       .  S
O101       Cr108   1.984       .  S
O102       Cr108   2.023       .  S
O102        C103   1.267       .  A
C103        O104   1.257       .  A
C103        C942   1.474       .  S
O104       Cr109   1.964       .  S
O105       Cr109   1.998       .  S
O105        C106   1.265       .  A
C106       C1201   1.475       .  S
Cr107       O110   1.780       .  S
Cr108       O110   1.779       .  S
Cr109       O110   1.758       .  S
O111       Cr129   2.022       .  S
O111        C119   1.270       .  A
O112       Cr129   1.971       .  S
O112        C113   1.262       .  A
C113        O114   1.269       .  A
C113        C897   1.485       .  S
O114       Cr130   2.017       .  S
O115       Cr130   1.985       .  S
O115        C116   1.256       .  A
C116        O117   1.263       .  A
C116       C1230   1.475       .  S
O117       Cr131   2.006       .  S
O118       Cr131   1.983       .  S
O118        C119   1.264       .  A
C119       C1121   1.484   1_565  S
O120       Cr129   2.002       .  S
O120        C128   1.262       .  A
O121       Cr129   2.008       .  S
O121        C122   1.265       .  A
C122        O123   1.255       .  A
C122        C878   1.484       .  S
O123       Cr130   1.967       .  S
O124       Cr130   2.023       .  S
O124        C125   1.270       .  A
C125        O126   1.259       .  A
C125        C945   1.482       .  S
O126       Cr131   1.965       .  S
O127       Cr131   2.000       .  S
O127        C128   1.264       .  A
C128       C1038   1.481       .  S
Cr129       O132   1.774       .  S
Cr130       O132   1.776       .  S
Cr131       O132   1.760       .  S
O133       Cr151   2.021       .  S
O133        C141   1.268       .  A
O134       Cr151   1.972       .  S
O134        C135   1.259       .  A
C135        O136   1.266   1_565  A
C135       C1182   1.485   1_565  S
O136       Cr152   2.009   1_545  S
O137       Cr152   2.006       .  S
O137        C138   1.264       .  A
C138        O139   1.262       .  A
C138        C830   1.479       .  S
O139       Cr153   1.994       .  S
O140       Cr153   1.972       .  S
O140        C141   1.260       .  A
C141        C814   1.482       .  S
O142       Cr151   1.994       .  S
O142        C150   1.261       .  A
O143       Cr151   2.008       .  S
O143        C144   1.269   1_565  A
C144        O145   1.265       .  A
C144        C974   1.504       .  S
O145       Cr152   1.992   1_545  S
O146       Cr152   2.025       .  S
O146        C147   1.267       .  A
C147        O148   1.257       .  A
C147        C862   1.477       .  S
O148       Cr153   1.961       .  S
O149       Cr153   1.991       .  S
O149        C150   1.261       .  A
C150        C846   1.474       .  S
Cr151       O154   1.771       .  S
Cr152       O154   1.780       .  S
Cr153       O154   1.755       .  S
O155       Cr173   2.028       .  S
O155        C163   1.272       .  A
O156       Cr173   1.974       .  S
O156        C157   1.259       .  A
C157        O158   1.271       .  A
C157        C734   1.486       .  S
O158       Cr174   2.025       .  S
O159       Cr174   1.998       .  S
O159        C160   1.260       .  A
C160        O161   1.261       .  A
C160        C782   1.474       .  S
O161       Cr175   1.995       .  S
O162       Cr175   1.962       .  S
O162        C163   1.259       .  A
C163        C766   1.483       .  S
O164       Cr173   1.995       .  S
O164        C172   1.259       .  A
O165       Cr173   2.020       .  S
O165        C166   1.269       .  A
C166        O167   1.259       .  A
C166        C753   1.485       .  S
O167       Cr174   1.968       .  S
O168       Cr174   2.034       .  S
O168        C169   1.273       .  A
C169        O170   1.257       .  A
C169        C865   1.482       .  S
O170       Cr175   1.957       .  S
O171       Cr175   1.986       .  S
O171        C172   1.260       .  A
C172        C801   1.469       .  S
Cr173       O176   1.772       .  S
Cr174       O176   1.771       .  S
Cr175       O176   1.754       .  S
O177       Cr195   2.039       .  S
O177        C185   1.274       .  A
O178       Cr195   1.958       .  S
O178        C179   1.259       .  A
C179        O180   1.269   1_455  A
C179        C929   1.482   1_455  S
O180       Cr196   2.021   1_655  S
O181       Cr196   1.993       .  S
O181        C182   1.259       .  A
C182        O183   1.263       .  A
C182        C785   1.478       .  S
O183       Cr197   2.005       .  S
O184       Cr197   1.959       .  S
O184        C185   1.260       .  A
C185        C849   1.491       .  S
O186       Cr195   1.994       .  S
O186        C194   1.258       .  A
O187       Cr195   2.018       .  S
O187        C188   1.268       .  A
C188        O189   1.255       .  A
C188       C1169   1.476   1_455  S
O189       Cr196   1.957       .  S
O190       Cr196   2.033       .  S
O190        C191   1.271       .  A
C191        O192   1.256       .  A
C191        C721   1.473       .  S
O192       Cr197   1.957       .  S
O193       Cr197   2.005       .  S
O193        C194   1.262       .  A
C194        C702   1.475       .  S
Cr195       O198   1.770       .  S
Cr196       O198   1.774       .  S
Cr197       O198   1.751       .  S
O199       Cr217   2.004       .  S
O199        C207   1.261       .  A
O200       Cr217   2.001       .  S
O200        C201   1.269       .  A
C201        O202   1.260       .  A
C201        C657   1.482       .  S
O202       Cr218   1.961       .  S
O203       Cr218   2.022       .  S
O203        C204   1.273       .  A
C204        O205   1.265       .  A
C204        C689   1.480       .  S
O205       Cr219   1.976       .  S
O206       Cr219   1.983       .  S
O206        C207   1.257       .  A
C207        C673   1.477       .  S
O208       Cr217   2.006       .  S
O208        C216   1.269       .  A
O209       Cr217   1.970       .  S
O209        C210   1.255       .  A
C210        O211   1.262       .  A
C210        C638   1.485       .  S
O211       Cr218   1.999       .  S
O212       Cr218   2.017       .  S
O212        C213   1.262       .  A
C213        O214   1.255       .  A
C213        C718   1.483       .  S
O214       Cr219   1.975       .  S
O215       Cr219   1.981       .  S
O215        C216   1.265       .  A
C216        C769   1.476       .  S
Cr217       O220   1.770       .  S
Cr218       O220   1.778       .  S
Cr219       O220   1.756       .  S
O221       Cr239   2.025       .  S
O221        C229   1.271       .  A
O222       Cr239   1.972       .  S
O222        C223   1.258       .  A
C223        O224   1.266       .  A
C223        C590   1.473       .  S
O224       Cr240   2.012       .  S
O225       Cr240   2.000       .  S
O225        C226   1.260       .  A
C226        O227   1.260       .  A
C226        C833   1.484       .  S
O227       Cr241   1.992       .  S
O228       Cr241   1.960       .  S
O228        C229   1.257       .  A
C229        C798   1.487       .  S
O230       Cr239   1.999       .  S
O230        C238   1.260       .  A
O231       Cr239   2.018       .  S
O231        C232   1.268       .  A
C232        O233   1.262       .  A
C232        C606   1.489       .  S
O233       Cr240   1.970       .  S
O234       Cr240   2.032       .  S
O234        C235   1.273       .  A
C235        O236   1.261       .  A
C235        C625   1.491       .  S
O236       Cr241   1.965       .  S
O237       Cr241   2.000       .  S
O237        C238   1.261       .  A
C238        C670   1.477       .  S
Cr239       O242   1.772       .  S
Cr240       O242   1.772       .  S
Cr241       O242   1.757       .  S
O243       Cr261   2.000       .  S
O243        C251   1.261       .  A
O244       Cr261   2.023       .  S
O244        C245   1.271       .  A
C245        O246   1.257       .  A
C245        C961   1.496       .  S
O246       Cr262   1.960       .  S
O247       Cr262   2.015       .  S
O247        C248   1.268       .  A
C248        O249   1.262       .  A
C248        C686   1.476       .  S
O249       Cr263   1.980       .  S
O250       Cr263   1.987       .  S
O250        C251   1.258       .  A
C251        C705   1.478       .  S
O252       Cr261   2.021       .  S
O252        C260   1.271       .  A
O253       Cr261   1.985       .  S
O253        C254   1.261       .  A
C254        O255   1.262       .  A
C254        C910   1.497       .  S
O255       Cr262   2.001       .  S
O256       Cr262   2.001       .  S
O256        C257   1.262       .  A
C257        O258   1.261       .  A
C257        C622   1.479       .  S
O258       Cr263   1.993       .  S
O259       Cr263   1.977       .  S
O259        C260   1.264       .  A
C260        C817   1.482       .  S
Cr261       O264   1.781       .  S
Cr262       O264   1.778       .  S
Cr263       O264   1.764       .  S
O265       Cr283   2.000       .  S
O265        C273   1.264       .  A
O266       Cr283   1.978       .  S
O266        C267   1.257       .  A
C267        O268   1.265       .  A
C267        C593   1.497   1_556  S
O268       Cr284   2.008       .  S
O269       Cr284   2.000       .  S
O269        C270   1.264       .  A
C270        O271   1.263       .  A
C270        C545   1.474       .  S
O271       Cr285   1.995       .  S
O272       Cr285   1.970       .  S
O272        C273   1.259       .  A
C273        C526   1.458       .  S
O274       Cr283   1.994       .  S
O274        C282   1.261       .  A
O275       Cr283   2.006   1_554  S
O275        C276   1.266   1_554  A
C276        O277   1.262       .  A
C276        C641   1.481   1_556  S
O277       Cr284   1.968       .  S
O278       Cr284   2.017       .  S
O278        C279   1.267       .  A
C279        O280   1.260       .  A
C279        C574   1.486       .  S
O280       Cr285   1.978       .  S
O281       Cr285   1.992       .  S
O281        C282   1.261       .  A
C282        C558   1.473       .  S
Cr283       O286   1.777       .  S
Cr284       O286   1.772       .  S
Cr285       O286   1.760       .  S
O287       Cr305   2.004       .  S
O287        C295   1.267       .  A
O288       Cr305   1.994       .  S
O288        C289   1.259       .  A
C289        O290   1.258       .  A
C289       C1009   1.488   1_655  S
O290       Cr306   1.993       .  S
O291       Cr306   2.017       .  S
O291        C292   1.268       .  A
C292        O293   1.263       .  A
C292        C513   1.477       .  S
O293       Cr307   1.967       .  S
O294       Cr307   1.980       .  S
O294        C295   1.260       .  A
C295        C497   1.479       .  S
O296       Cr305   2.001       .  S
O296        C304   1.261       .  A
O297       Cr305   1.964       .  S
O297        C298   1.263       .  A
C298        O299   1.272   1_655  A
C298       C1105   1.498   1_655  S
O299       Cr306   2.024   1_455  S
O300       Cr306   1.997       .  S
O300        C301   1.259       .  A
C301        O302   1.254       .  A
C301        C577   1.468       .  S
O302       Cr307   1.966       .  S
O303       Cr307   1.995       .  S
O303        C304   1.264       .  A
C304        C478   1.489       .  S
Cr305       O308   1.777       .  S
Cr306       O308   1.788       .  S
Cr307       O308   1.766       .  S
O309       Cr327   2.027   1_554  S
O309        C317   1.270   1_554  A
O310       Cr327   1.998       .  S
O310        C311   1.263       .  A
C311        O312   1.262       .  A
C311        C737   1.497       .  S
O312       Cr328   2.001       .  S
O313       Cr328   2.027       .  S
O313        C314   1.267       .  A
C314        O315   1.251       .  A
C314        C510   1.489       .  S
O315       Cr329   1.966       .  S
O316       Cr329   1.959       .  S
O316        C317   1.259       .  A
C317        C561   1.478       .  S
O318       Cr327   2.023       .  S
O318        C326   1.264       .  A
O319       Cr327   2.005       .  S
O319        C320   1.268       .  A
C320        O321   1.264       .  A
C320        C609   1.485       .  S
O321       Cr328   1.987       .  S
O322       Cr328   2.007       .  S
O322        C323   1.267       .  A
C323        O324   1.265       .  A
C323        C462   1.472       .  S
O324       Cr329   1.985       .  S
O325       Cr329   1.983       .  S
O325        C326   1.255       .  A
C326        C446   1.486       .  S
Cr327       O330   1.778       .  S
Cr328       O330   1.777       .  S
Cr329       O330   1.761       .  S
O331       Cr349   2.006       .  S
O331        C339   1.263       .  A
O332       Cr349   2.007       .  S
O332        C333   1.269       .  A
C333        O334   1.258       .  A
C333        C654   1.473       .  S
O334       Cr350   1.960       .  S
O335       Cr350   2.016       .  S
O335        C336   1.264       .  A
C336        O337   1.255       .  A
C336        C414   1.474       .  S
O337       Cr351   1.954       .  S
O338       Cr351   1.994       .  S
O338        C339   1.262       .  A
C339        C449   1.488       .  S
O340       Cr349   2.010       .  S
O340        C348   1.266       .  A
O341       Cr349   1.986       .  S
O341        C342   1.260       .  A
C342        O343   1.264       .  A
C342        C750   1.496       .  S
O343       Cr350   2.004       .  S
O344       Cr350   1.987       .  S
O344        C345   1.261       .  A
C345        O346   1.266       .  A
C345        C433   1.474       .  S
O346       Cr351   2.009       .  S
O347       Cr351   1.956       .  S
O347        C348   1.257       .  A
C348        C529   1.460       .  S
Cr349       O352   1.776       .  S
Cr350       O352   1.781       .  S
Cr351       O352   1.757       .  S
O353       Cr371   1.982       .  S
O353        C361   1.256       .  A
O354       Cr371   2.019       .  S
O354        C355   1.271   1_545  A
C355        O356   1.258   1_565  A
C355        C894   1.496       .  S
O356       Cr372   1.967       .  S
O357       Cr372   2.039       .  S
O357        C358   1.273       .  A
C358        O359   1.261       .  A
C358        C542   1.498       .  S
O359       Cr373   1.978       .  S
O360       Cr373   2.013       .  S
O360        C361   1.266       .  A
C361        C481   1.473       .  S
O362       Cr371   2.033       .  S
O362        C370   1.271       .  A
O363       Cr371   1.965       .  S
O363        C364   1.257       .  A
C364        O365   1.270   1_545  A
C364       C1025   1.490   1_545  S
O365       Cr372   2.030   1_565  S
O366       Cr372   1.989       .  S
O366        C367   1.261       .  A
C367        O368   1.265       .  A
C367        C430   1.477       .  S
O368       Cr373   2.009       .  S
O369       Cr373   1.971       .  S
O369        C370   1.260       .  A
C370        C398   1.488       .  S
Cr371       O374   1.775       .  S
Cr372       O374   1.773       .  S
Cr373       O374   1.759       .  S
O375       Cr393   2.011       .  S
O375        C383   1.265       .  A
O376       Cr393   2.006       .  S
O376        C377   1.266       .  A
C377        O378   1.258       .  A
C377       C1089   1.470       .  S
O378       Cr394   1.965       .  S
O379       Cr394   2.012       .  S
O379        C380   1.267       .  A
C380        O381   1.261       .  A
C380        C417   1.475       .  S
O381       Cr395   1.969       .  S
O382       Cr395   1.987       .  S
O382        C383   1.258       .  A
C383        C401   1.479       .  S
O384       Cr393   2.007       .  S
O384        C392   1.268       .  A
O385       Cr393   1.978       .  S
O385        C386   1.261       .  A
C386        O387   1.263       .  A
C386        C881   1.487       .  S
O387       Cr394   2.000       .  S
O388       Cr394   2.000       .  S
O388        C389   1.261       .  A
C389        O390   1.257       .  A
C389        C465   1.467       .  S
O390       Cr395   1.980       .  S
O391       Cr395   1.980       .  S
O391        C392   1.261       .  A
C392        C494   1.467       .  S
Cr393       O396   1.773       .  S
Cr394       O396   1.777       .  S
Cr395       O396   1.757       .  S
C397        C398   1.403       .  A
C397        C402   1.403       .  A
C397        H404   1.083       .  S
C398        C399   1.416       .  A
C399        C400   1.410       .  A
C399        C406   1.504       .  S
C400        C401   1.404       .  A
C400        H405   1.084       .  S
C401        C402   1.412       .  A
C402        C403   1.503       .  S
C403        H407   1.111       .  S
C403        H408   1.109       .  S
C403        H409   1.106       .  S
C406        H410   1.110       .  S
C406        H411   1.109       .  S
C406        H412   1.111       .  S
C413        C414   1.403       .  A
C413        C418   1.397       .  A
C413        H420   1.085       .  S
C414        C415   1.414       .  A
C415        C416   1.403       .  A
C415        C422   1.506       .  S
C416        C417   1.404       .  A
C416        H421   1.082       .  S
C417        C418   1.413       .  A
C418        C419   1.505       .  S
C419        H423   1.111       .  S
C419        H424   1.110       .  S
C419        H425   1.110       .  S
C422        H426   1.110       .  S
C422        H427   1.109       .  S
C422        H428   1.111       .  S
C429        C430   1.402       .  A
C429        C434   1.401       .  A
C429        H436   1.085       .  S
C430        C431   1.412       .  A
C431        C432   1.409       .  A
C431        C438   1.505       .  S
C432        C433   1.404       .  A
C432        H437   1.084       .  S
C433        C434   1.412       .  A
C434        C435   1.506       .  S
C435        H439   1.111       .  S
C435        H440   1.108       .  S
C435        H441   1.110       .  S
C438        H442   1.110       .  S
C438        H443   1.109       .  S
C438        H444   1.111       .  S
C445        C446   1.406   1_554  A
C445        C450   1.414       .  A
C445        H452   1.084       .  S
C446        C447   1.415       .  A
C447        C448   1.406       .  A
C447        C454   1.505       .  S
C448        C449   1.403       .  A
C448        H453   1.085       .  S
C449        C450   1.415   1_556  A
C450        C451   1.506       .  S
C451        H455   1.111       .  S
C451        H456   1.108       .  S
C451        H457   1.110       .  S
C454        H458   1.110       .  S
C454        H459   1.110       .  S
C454        H460   1.110       .  S
C461        C462   1.405       .  A
C461        C466   1.410       .  A
C461        H468   1.084       .  S
C462        C463   1.414       .  A
C463        C464   1.394       .  A
C463        C470   1.509       .  S
C464        C465   1.398       .  A
C464        H469   1.084       .  S
C465        C466   1.411       .  A
C466        C467   1.504       .  S
C467        H471   1.111       .  S
C467        H472   1.106       .  S
C467        H473   1.110       .  S
C470        H474   1.108       .  S
C470        H475   1.109       .  S
C470        H476   1.111       .  S
C477        C478   1.407       .  A
C477        C482   1.405       .  A
C477        H484   1.084       .  S
C478        C479   1.424       .  A
C479        C480   1.405       .  A
C479        C486   1.512       .  S
C480        C481   1.397       .  A
C480        H485   1.082       .  S
C481        C482   1.402       .  A
C482        C483   1.500       .  S
C483        H487   1.110       .  S
C483        H488   1.110       .  S
C483        H489   1.106       .  S
C486        H490   1.110       .  S
C486        H491   1.105       .  S
C486        H492   1.111       .  S
C493        C494   1.393       .  A
C493        C498   1.392       .  A
C493        H500   1.086       .  S
C494        C495   1.410       .  A
C495        C496   1.411       .  A
C495        C502   1.504       .  S
C496        C497   1.408       .  A
C496        H501   1.084       .  S
C497        C498   1.424       .  A
C498        C499   1.508       .  S
C499        H503   1.111       .  S
C499        H504   1.097       .  S
C499        H505   1.110       .  S
C502        H506   1.109       .  S
C502        H507   1.110       .  S
C502        H508   1.111       .  S
C509        C510   1.408       .  A
C509        C514   1.415       .  A
C509        H516   1.083       .  S
C510        C511   1.427       .  A
C511        C512   1.394       .  A
C511        C518   1.514       .  S
C512        C513   1.394       .  A
C512        H517   1.085       .  S
C513        C514   1.413       .  A
C514        C515   1.504       .  S
C515        H519   1.111       .  S
C515        H520   1.110       .  S
C515        H521   1.110       .  S
C518        H522   1.105       .  S
C518        H523   1.111       .  S
C518        H524   1.108       .  S
C525        C526   1.398       .  A
C525        C530   1.393       .  A
C525        H532   1.085       .  S
C526        C527   1.410       .  A
C527        C528   1.401       .  A
C527        C534   1.504       .  S
C528        C529   1.401       .  A
C528        H533   1.085       .  S
C529        C530   1.413       .  A
C530        C531   1.507       .  S
C531        H535   1.111       .  S
C531        H536   1.111   1_556  S
C531        H537   1.100       .  S
C534        H538   1.110       .  S
C534        H539   1.108       .  S
C534        H540   1.110       .  S
C541        C542   1.410       .  A
C541        C546   1.411       .  A
C541        H548   1.083       .  S
C542        C543   1.420       .  A
C543        C544   1.400       .  A
C543        C550   1.496       .  S
C544        C545   1.394       .  A
C544        H549   1.085       .  S
C545        C546   1.410       .  A
C546        C547   1.502       .  S
C547        H551   1.111       .  S
C547        H552   1.108       .  S
C547        H553   1.110       .  S
C550        H554   1.108       .  S
C550        H555   1.108       .  S
C550        H556   1.111       .  S
C557        C558   1.400       .  A
C557        C562   1.401       .  A
C557        H564   1.084       .  S
C558        C559   1.414   1_556  A
C559        C560   1.408       .  A
C559        C566   1.505       .  S
C560        C561   1.402   1_554  A
C560        H565   1.084       .  S
C561        C562   1.416       .  A
C562        C563   1.509       .  S
C563        H567   1.110       .  S
C563        H568   1.110       .  S
C563        H569   1.109       .  S
C566        H570   1.110       .  S
C566        H571   1.106       .  S
C566        H572   1.111       .  S
C573        C574   1.408       .  A
C573        C578   1.404       .  A
C573        H580   1.084       .  S
C574        C575   1.417       .  A
C575        C576   1.405       .  A
C575        C582   1.508       .  S
C576        C577   1.402       .  A
C576        H581   1.085       .  S
C577        C578   1.409       .  A
C578        C579   1.507       .  S
C579        H583   1.111       .  S
C579        H584   1.110       .  S
C579        H585   1.110       .  S
C582        H586   1.110       .  S
C582        H587   1.108       .  S
C582        H588   1.111       .  S
C589        C590   1.400       .  A
C589        C594   1.405   1_565  A
C589        H596   1.084       .  S
C590        C591   1.407       .  A
C591        C592   1.405   1_564  A
C591        C598   1.507   1_554  S
C592        C593   1.412   1_556  A
C592        H597   1.083       .  S
C593        C594   1.424       .  A
C594        C595   1.508       .  S
C595        H599   1.111       .  S
C595        H600   1.107       .  S
C595        H601   1.110       .  S
C598        H602   1.111       .  S
C598        H603   1.110   1_556  S
C598        H604   1.111       .  S
C605        C606   1.405       .  A
C605        C610   1.402       .  A
C605        H612   1.084       .  S
C606        C607   1.418   1_554  A
C607        C608   1.409       .  A
C607        C614   1.507       .  S
C608        C609   1.406       .  A
C608        H613   1.084       .  S
C609        C610   1.414   1_556  A
C610        C611   1.507       .  S
C611        H615   1.111       .  S
C611        H616   1.108       .  S
C611        H617   1.108       .  S
C614        H618   1.110       .  S
C614        H619   1.110       .  S
C614        H620   1.111       .  S
C621        C622   1.402       .  A
C621        C626   1.401       .  A
C621        H628   1.084       .  S
C622        C623   1.409       .  A
C623        C624   1.410       .  A
C623        C630   1.504       .  S
C624        C625   1.411       .  A
C624        H629   1.084       .  S
C625        C626   1.419       .  A
C626        C627   1.510       .  S
C627        H631   1.110       .  S
C627        H632   1.110       .  S
C627        H633   1.109       .  S
C630        H634   1.110       .  S
C630        H635   1.106       .  S
C630        H636   1.111       .  S
C637        C638   1.407       .  A
C637        C642   1.405   1_455  A
C637        H644   1.084       .  S
C638        C639   1.418   1_554  A
C639        C640   1.400   1_455  A
C639        C646   1.510       .  S
C640        C641   1.403   1_556  A
C640        H645   1.084       .  S
C641        C642   1.415       .  A
C642        C643   1.508       .  S
C643        H647   1.111       .  S
C643        H648   1.110       .  S
C643        H649   1.110       .  S
C646        H650   1.110       .  S
C646        H651   1.110       .  S
C646        H652   1.111       .  S
C653        C654   1.401   1_554  A
C653        C658   1.400       .  A
C653        H660   1.084       .  S
C654        C655   1.415       .  A
C655        C656   1.399       .  A
C655        C662   1.510       .  S
C656        C657   1.406   1_556  A
C656        H661   1.084       .  S
C657        C658   1.420       .  A
C658        C659   1.509       .  S
C659        H663   1.111       .  S
C659        H664   1.110       .  S
C659        H665   1.109       .  S
C662        H666   1.110       .  S
C662        H667   1.111       .  S
C662        H668   1.111       .  S
C669        C670   1.405       .  A
C669        C674   1.410       .  A
C669        H676   1.084       .  S
C670        C671   1.414       .  A
C671        C672   1.401       .  A
C671        C678   1.508   1_554  S
C672        C673   1.401       .  A
C672        H677   1.083       .  S
C673        C674   1.411       .  A
C674        C675   1.501       .  S
C675        H679   1.111       .  S
C675        H680   1.110       .  S
C675        H681   1.105       .  S
C678        H682   1.108       .  S
C678        H683   1.111   1_556  S
C678        H684   1.110       .  S
C685        C686   1.402       .  A
C685        C690   1.400       .  A
C685        H692   1.084       .  S
C686        C687   1.413       .  A
C687        C688   1.401       .  A
C687        C694   1.502       .  S
C688        C689   1.404       .  A
C688        H693   1.084       .  S
C689        C690   1.412       .  A
C690        C691   1.502       .  S
C691        H695   1.110       .  S
C691        H696   1.108       .  S
C691        H697   1.109       .  S
C694        H698   1.107       .  S
C694        H699   1.110       .  S
C694        H700   1.107       .  S
C701        C702   1.399       .  A
C701        C706   1.402       .  A
C701        H708   1.085       .  S
C702        C703   1.414       .  A
C703        C704   1.408       .  A
C703        C710   1.502       .  S
C704        C705   1.403       .  A
C704        H709   1.085       .  S
C705        C706   1.411       .  A
C706        C707   1.499       .  S
C707        H711   1.111       .  S
C707        H712   1.110       .  S
C707        H713   1.109       .  S
C710        H714   1.110       .  S
C710        H715   1.109       .  S
C710        H716   1.110       .  S
C717        C718   1.403       .  A
C717        C722   1.385       .  A
C717        H724   1.084       .  S
C718        C719   1.415       .  A
C719        C720   1.416       .  A
C719        C726   1.504       .  S
C720        C721   1.409       .  A
C720        H725   1.084       .  S
C721        C722   1.413       .  A
C722        C723   1.513       .  S
C723        H727   1.111       .  S
C723        H728   1.109       .  S
C723        H729   1.106       .  S
C726        H730   1.110       .  S
C726        H731   1.110       .  S
C726        H732   1.111       .  S
C733        C734   1.401       .  A
C733        C738   1.409   1_454  A
C733        H740   1.084       .  S
C734        C735   1.416       .  A
C735        C736   1.408   1_455  A
C735        C742   1.509       .  S
C736        C737   1.406   1_554  A
C736        H741   1.084       .  S
C737        C738   1.423       .  A
C738        C739   1.507       .  S
C739        H743   1.111       .  S
C739        H744   1.107       .  S
C739        H745   1.110       .  S
C742        H746   1.111       .  S
C742        H747   1.110       .  S
C742        H748   1.111       .  S
C749        C750   1.411       .  A
C749        C754   1.407   1_545  A
C749        H756   1.084       .  S
C750        C751   1.420   1_556  A
C751        C752   1.405   1_545  A
C751        C758   1.509       .  S
C752        C753   1.405       .  A
C752        H757   1.085       .  S
C753        C754   1.411   1_554  A
C754        C755   1.507       .  S
C755        H759   1.111       .  S
C755        H760   1.111       .  S
C755        H761   1.109       .  S
C758        H762   1.110       .  S
C758        H763   1.110       .  S
C758        H764   1.111       .  S
C765        C766   1.407       .  A
C765        C770   1.403       .  A
C765        H772   1.082       .  S
C766        C767   1.416       .  A
C767        C768   1.401       .  A
C767        C774   1.505       .  S
C768        C769   1.401       .  A
C768        H773   1.082       .  S
C769        C770   1.411       .  A
C770        C771   1.506       .  S
C771        H775   1.109       .  S
C771        H776   1.106       .  S
C771        H777   1.110       .  S
C774        H778   1.109       .  S
C774        H779   1.110   1_554  S
C774        H780   1.111   1_554  S
C781        C782   1.398       .  A
C781        C786   1.397       .  A
C781        H788   1.082       .  S
C782        C783   1.411       .  A
C783        C784   1.411       .  A
C783        C790   1.503       .  S
C784        C785   1.405       .  A
C784        H789   1.084       .  S
C785        C786   1.415       .  A
C786        C787   1.506       .  S
C787        H791   1.110       .  S
C787        H792   1.105       .  S
C787        H793   1.110       .  S
C790        H794   1.110       .  S
C790        H795   1.105       .  S
C790        H796   1.111       .  S
C797        C798   1.409       .  A
C797        C802   1.406       .  A
C797        H804   1.083   1_554  S
C798        C799   1.422       .  A
C799        C800   1.400       .  A
C799        C806   1.512       .  S
C800        C801   1.399       .  A
C800        H805   1.085       .  S
C801        C802   1.407       .  A
C802        C803   1.505   1_554  S
C803        H807   1.111       .  S
C803        H808   1.110       .  S
C803        H809   1.107       .  S
C806        H810   1.111       .  S
C806        H811   1.109       .  S
C806        H812   1.111       .  S
C813        C814   1.403       .  A
C813        C818   1.403       .  A
C813        H820   1.083       .  S
C814        C815   1.416       .  A
C815        C816   1.406       .  A
C815        C822   1.507       .  S
C816        C817   1.404       .  A
C816        H821   1.085       .  S
C817        C818   1.412       .  A
C818        C819   1.504       .  S
C819        H823   1.111       .  S
C819        H824   1.109       .  S
C819        H825   1.110       .  S
C822        H826   1.110       .  S
C822        H827   1.110       .  S
C822        H828   1.111       .  S
C829        C830   1.399       .  A
C829        C834   1.399       .  A
C829        H836   1.081       .  S
C830        C831   1.411       .  A
C831        C832   1.414       .  A
C831        C838   1.503   1_565  S
C832        C833   1.409       .  A
C832        H837   1.084       .  S
C833        C834   1.416       .  A
C834        C835   1.511       .  S
C835        H839   1.107       .  S
C835        H840   1.110       .  S
C835        H841   1.108       .  S
C838        H842   1.110       .  S
C838        H843   1.108   1_545  S
C838        H844   1.111       .  S
C845        C846   1.401       .  A
C845        C850   1.409       .  A
C845        H852   1.084       .  S
C846        C847   1.410       .  A
C847        C848   1.400       .  A
C847        C854   1.504       .  S
C848        C849   1.406       .  A
C848        H853   1.085       .  S
C849        C850   1.418       .  A
C850        C851   1.501       .  S
C851        H855   1.111       .  S
C851        H856   1.105       .  S
C851        H857   1.110       .  S
C854        H858   1.107       .  S
C854        H859   1.110       .  S
C854        H860   1.111       .  S
C861        C862   1.403       .  A
C861        C866   1.402       .  A
C861        H868   1.083       .  S
C862        C863   1.412       .  A
C863        C864   1.404       .  A
C863        C870   1.506       .  S
C864        C865   1.407       .  A
C864        H869   1.084       .  S
C865        C866   1.413       .  A
C866        C867   1.503       .  S
C867        H871   1.111       .  S
C867        H872   1.109       .  S
C867        H873   1.110       .  S
C870        H874   1.109       .  S
C870        H875   1.110   1_565  S
C870        H876   1.111       .  S
C877        C878   1.403       .  A
C877        C882   1.404       .  A
C877        H884   1.084       .  S
C878        C879   1.418       .  A
C879        C880   1.403       .  A
C879        C886   1.510       .  S
C880        C881   1.405       .  A
C880        H885   1.084       .  S
C881        C882   1.419       .  A
C882        C883   1.508       .  S
C883        H887   1.111       .  S
C883        H888   1.110       .  S
C883        H889   1.109       .  S
C886        H890   1.111       .  S
C886        H891   1.109       .  S
C886        H892   1.111       .  S
C893        C894   1.408       .  A
C893        C898   1.406       .  A
C893        H900   1.084       .  S
C894        C895   1.424       .  A
C895        C896   1.404       .  A
C895        C902   1.510       .  S
C896        C897   1.402       .  A
C896        H901   1.085       .  S
C897        C898   1.415       .  A
C898        C899   1.506       .  S
C899        H903   1.111       .  S
C899        H904   1.109       .  S
C899        H905   1.108       .  S
C902        H906   1.110       .  S
C902        H907   1.110   1_565  S
C902        H908   1.111       .  S
C909        C910   1.409       .  A
C909        C914   1.407       .  A
C909        H916   1.084       .  S
C910        C911   1.422       .  A
C911        C912   1.406       .  A
C911        C918   1.509       .  S
C912        C913   1.402       .  A
C912        H917   1.085       .  S
C913        C914   1.415       .  A
C914        C915   1.509       .  S
C915        H919   1.111       .  S
C915        H920   1.111       .  S
C915        H921   1.110       .  S
C918        H922   1.110       .  S
C918        H923   1.110       .  S
C918        H924   1.111       .  S
C925        C926   1.407       .  A
C925        C930   1.409       .  A
C925        H932   1.083       .  S
C926        C927   1.417       .  A
C927        C928   1.398   1_655  A
C927        C934   1.511   1_655  S
C928        C929   1.404   1_455  A
C928        H933   1.084       .  S
C929        C930   1.415       .  A
C930        C931   1.506       .  S
C931        H935   1.111       .  S
C931        H936   1.111       .  S
C931        H937   1.110       .  S
C934        H938   1.110       .  S
C934        H939   1.109       .  S
C934        H940   1.111       .  S
C941        C942   1.402       .  A
C941        C946   1.404       .  A
C941        H948   1.079       .  S
C942        C943   1.409       .  A
C943        C944   1.402       .  A
C943        C950   1.504       .  S
C944        C945   1.406       .  A
C944        H949   1.080       .  S
C945        C946   1.414       .  A
C946        C947   1.503       .  S
C947        H951   1.110       .  S
C947        H952   1.107       .  S
C947        H953   1.110       .  S
C950        H954   1.110       .  S
C950        H955   1.110       .  S
C950        H956   1.111       .  S
C957        C958   1.397       .  A
C957        C962   1.401       .  A
C957        H964   1.085       .  S
C958        C959   1.411       .  A
C959        C960   1.409       .  A
C959        C966   1.506       .  S
C960        C961   1.410       .  A
C960        H965   1.084       .  S
C961        C962   1.426       .  A
C962        C963   1.510       .  S
C963        H967   1.111       .  S
C963        H968   1.110       .  S
C963        H969   1.108       .  S
C966        H970   1.110       .  S
C966        H971   1.110       .  S
C966        H972   1.111       .  S
C973        C974   1.408       .  A
C973        C978   1.406       .  A
C973        H980   1.083       .  S
C974        C975   1.421       .  A
C975        C976   1.411       .  A
C975        C982   1.508       .  S
C976        C977   1.409       .  A
C976        H981   1.084       .  S
C977        C978   1.422       .  A
C978        C979   1.510       .  S
C979        H983   1.111       .  S
C979        H984   1.110       .  S
C979        H985   1.110       .  S
C982        H986   1.110       .  S
C982        H987   1.110       .  S
C982        H988   1.111       .  S
C989        C990   1.405       .  A
C989        C994   1.408       .  A
C989        H996   1.084       .  S
C990        C991   1.413       .  A
C991        C992   1.396       .  A
C991        C998   1.505   1_455  S
C992        C993   1.398       .  A
C992        H997   1.083   1_565  S
C993        C994   1.409       .  A
C994        C995   1.501       .  S
C995        H999   1.111       .  S
C995       H1000   1.102       .  S
C995       H1001   1.110       .  S
C998       H1002   1.107       .  S
C998       H1003   1.109       .  S
C998       H1004   1.111       .  S
C1005      C1006   1.408       .  A
C1005      C1010   1.402       .  A
C1005      H1012   1.084       .  S
C1006      C1007   1.420       .  A
C1007      C1008   1.413       .  A
C1007      C1014   1.506       .  S
C1008      C1009   1.406       .  A
C1008      H1013   1.084   1_455  S
C1009      C1010   1.415       .  A
C1010      C1011   1.510       .  S
C1011      H1015   1.111       .  S
C1011      H1016   1.109       .  S
C1011      H1017   1.111       .  S
C1014      H1018   1.110       .  S
C1014      H1019   1.110       .  S
C1014      H1020   1.111       .  S
C1021      C1022   1.406       .  A
C1021      C1026   1.403   1_565  A
C1021      H1028   1.084       .  S
C1022      C1023   1.418       .  A
C1023      C1024   1.412       .  A
C1023      C1030   1.506       .  S
C1024      C1025   1.406       .  A
C1024      H1029   1.084       .  S
C1025      C1026   1.418   1_565  A
C1026      C1027   1.511       .  S
C1027      H1031   1.111       .  S
C1027      H1032   1.109       .  S
C1027      H1033   1.110       .  S
C1030      H1034   1.110       .  S
C1030      H1035   1.110       .  S
C1030      H1036   1.111       .  S
C1037      C1038   1.400       .  A
C1037      C1042   1.397       .  A
C1037      H1044   1.083       .  S
C1038      C1039   1.415       .  A
C1039      C1040   1.415       .  A
C1039      C1046   1.505       .  S
C1040      C1041   1.406       .  A
C1040      H1045   1.084       .  S
C1041      C1042   1.413       .  A
C1042      C1043   1.506   1_655  S
C1043      H1047   1.110       .  S
C1043      H1048   1.107       .  S
C1043      H1049   1.110       .  S
C1046      H1050   1.109       .  S
C1046      H1051   1.110       .  S
C1046      H1052   1.111       .  S
C1053      C1054   1.397       .  A
C1053      C1058   1.398       .  A
C1053      H1060   1.085       .  S
C1054      C1055   1.413       .  A
C1055      C1056   1.410   1_565  A
C1055      C1062   1.507   1_565  S
C1056      C1057   1.406       .  A
C1056      H1061   1.084       .  S
C1057      C1058   1.415   1_545  A
C1058      C1059   1.501       .  S
C1059      H1063   1.111       .  S
C1059      H1064   1.108       .  S
C1059      H1065   1.110       .  S
C1062      H1066   1.110   1_545  S
C1062      H1067   1.107       .  S
C1062      H1068   1.111       .  S
C1069      C1070   1.406       .  A
C1069      C1074   1.409       .  A
C1069      H1076   1.084       .  S
C1070      C1071   1.415   1_455  A
C1071      C1072   1.404       .  A
C1071      C1078   1.507       .  S
C1072      C1073   1.401       .  A
C1072      H1077   1.083       .  S
C1073      C1074   1.413   1_655  A
C1074      C1075   1.505       .  S
C1075      H1079   1.111       .  S
C1075      H1080   1.109       .  S
C1075      H1081   1.110       .  S
C1078      H1082   1.110       .  S
C1078      H1083   1.109       .  S
C1078      H1084   1.110       .  S
C1085      C1086   1.408       .  A
C1085      C1090   1.398       .  A
C1085      H1092   1.084       .  S
C1086      C1087   1.421       .  A
C1087      C1088   1.405       .  A
C1087      C1094   1.508       .  S
C1088      C1089   1.401       .  A
C1088      H1093   1.084       .  S
C1089      C1090   1.411       .  A
C1090      C1091   1.510       .  S
C1091      H1095   1.111       .  S
C1091      H1096   1.109       .  S
C1091      H1097   1.110       .  S
C1094      H1098   1.110       .  S
C1094      H1099   1.110       .  S
C1094      H1100   1.111       .  S
C1101      C1102   1.403       .  A
C1101      C1106   1.411       .  A
C1101      H1108   1.084       .  S
C1102      C1103   1.415       .  A
C1103      C1104   1.400       .  A
C1103      C1110   1.511       .  S
C1104      C1105   1.409       .  A
C1104      H1109   1.084   1_455  S
C1105      C1106   1.422       .  A
C1106      C1107   1.507       .  S
C1107      H1111   1.111       .  S
C1107      H1112   1.110       .  S
C1107      H1113   1.110       .  S
C1110      H1114   1.111       .  S
C1110      H1115   1.109       .  S
C1110      H1116   1.111   1_455  S
C1117      C1118   1.398       .  A
C1117      C1122   1.401       .  A
C1117      H1124   1.085       .  S
C1118      C1119   1.409       .  A
C1119      C1120   1.403       .  A
C1119      C1126   1.505   1_655  S
C1120      C1121   1.405       .  A
C1120      H1125   1.083       .  S
C1121      C1122   1.414       .  A
C1122      C1123   1.497       .  S
C1123      H1127   1.111       .  S
C1123      H1128   1.108       .  S
C1123      H1129   1.110       .  S
C1126      H1130   1.110       .  S
C1126      H1131   1.110       .  S
C1126      H1132   1.111   1_455  S
C1133      C1134   1.406       .  A
C1133      C1138   1.395       .  A
C1133      H1140   1.083       .  S
C1134      C1135   1.417       .  A
C1135      C1136   1.414       .  A
C1135      C1142   1.506       .  S
C1136      C1137   1.410       .  A
C1136      H1141   1.083       .  S
C1137      C1138   1.424       .  A
C1138      C1139   1.514       .  S
C1139      H1143   1.110       .  S
C1139      H1144   1.110       .  S
C1139      H1145   1.106       .  S
C1142      H1146   1.107       .  S
C1142      H1147   1.111       .  S
C1142      H1148   1.111       .  S
C1149      C1150   1.404       .  A
C1149      C1154   1.404       .  A
C1149      H1156   1.084       .  S
C1150      C1151   1.412       .  A
C1151      C1152   1.405       .  A
C1151      C1158   1.505       .  S
C1152      C1153   1.404       .  A
C1152      H1157   1.084       .  S
C1153      C1154   1.411       .  A
C1154      C1155   1.508       .  S
C1155      H1159   1.111       .  S
C1155      H1160   1.110       .  S
C1155      H1161   1.109       .  S
C1158      H1162   1.109       .  S
C1158      H1163   1.110       .  S
C1158      H1164   1.110       .  S
C1165      C1166   1.406       .  A
C1165      C1170   1.400       .  A
C1165      H1172   1.084       .  S
C1166      C1167   1.423       .  A
C1167      C1168   1.406       .  A
C1167      C1174   1.508       .  S
C1168      C1169   1.400       .  A
C1168      H1173   1.084       .  S
C1169      C1170   1.415       .  A
C1170      C1171   1.511   1_655  S
C1171      H1175   1.111       .  S
C1171      H1176   1.111       .  S
C1171      H1177   1.109       .  S
C1174      H1178   1.110       .  S
C1174      H1179   1.110       .  S
C1174      H1180   1.111       .  S
C1181      C1182   1.408       .  A
C1181      C1186   1.409       .  A
C1181      H1188   1.084       .  S
C1182      C1183   1.416       .  A
C1183      C1184   1.399       .  A
C1183      C1190   1.510   1_545  S
C1184      C1185   1.405       .  A
C1184      H1189   1.084       .  S
C1185      C1186   1.415       .  A
C1186      C1187   1.506       .  S
C1187      H1191   1.111       .  S
C1187      H1192   1.110       .  S
C1187      H1193   1.110       .  S
C1190      H1194   1.110       .  S
C1190      H1195   1.111       .  S
C1190      H1196   1.111       .  S
C1197      C1198   1.400       .  A
C1197      C1202   1.395       .  A
C1197      H1204   1.082       .  S
C1198      C1199   1.417       .  A
C1199      C1200   1.410       .  A
C1199      C1206   1.506       .  S
C1200      C1201   1.405       .  A
C1200      H1205   1.084       .  S
C1201      C1202   1.409       .  A
C1202      C1203   1.502       .  S
C1203      H1207   1.110       .  S
C1203      H1208   1.111       .  S
C1203      H1209   1.107       .  S
C1206      H1210   1.110   1_565  S
C1206      H1211   1.107   1_565  S
C1206      H1212   1.110       .  S
C1213      C1214   1.405   1_655  A
C1213      C1218   1.398       .  A
C1213      H1220   1.085       .  S
C1214      C1215   1.415       .  A
C1215      C1216   1.408   1_455  A
C1215      C1222   1.505       .  S
C1216      C1217   1.402       .  A
C1216      H1221   1.084   1_655  S
C1217      C1218   1.409       .  A
C1218      C1219   1.507       .  S
C1219      H1223   1.111       .  S
C1219      H1224   1.108       .  S
C1219      H1225   1.110       .  S
C1222      H1226   1.109       .  S
C1222      H1227   1.110       .  S
C1222      H1228   1.111       .  S
C1229      C1230   1.400       .  A
C1229      C1234   1.403       .  A
C1229      H1236   1.080       .  S
C1230      C1231   1.408   1_565  A
C1231      C1232   1.404       .  A
C1231      C1238   1.498       .  S
C1232      C1233   1.403       .  A
C1232      H1237   1.083       .  S
C1233      C1234   1.414   1_545  A
C1234      C1235   1.507       .  S
C1235      H1239   1.111       .  S
C1235      H1240   1.103       .  S
C1235      H1241   1.110       .  S
C1238      H1242   1.103       .  S
C1238      H1243   1.109       .  S
C1238      H1244   1.111       .  S
C1245      C1246   1.408       .  A
C1245      C1250   1.410       .  A
C1245      H1252   1.083       .  S
C1246      C1247   1.421       .  A
C1247      C1248   1.402       .  A
C1247      C1254   1.510       .  S
C1248      C1249   1.406       .  A
C1248      H1253   1.084       .  S
C1249      C1250   1.419       .  A
C1250      C1251   1.507       .  S
C1251      H1255   1.111       .  S
C1251      H1256   1.107       .  S
C1251      H1257   1.110       .  S
C1254      H1258   1.109       .  S
C1254      H1259   1.109       .  S
C1254      H1260   1.111       .  S
