geometry optimzed in LAMMPS
_audit_creation_date              2020-11-30 
_audit_creation_method            'lammps2cif' 
_symmetry_space_group_name_H-M    'P1' 
_symmetry_Int_Tables_number       1 
_symmetry_cell_setting            triclinic 
loop_ 
_symmetry_equiv_pos_as_xyz 
  x,y,z 
_cell_length_a                    33.53797587 
_cell_length_b                    33.55613379100145 
_cell_length_c                    27.80005795951218 
_cell_angle_alpha                 90.05961397661892 
_cell_angle_beta                  89.94237395273272 
_cell_angle_gamma                 120.08826735560075 
loop_ 
_atom_site_label 
_atom_site_type_symbol 
_atom_site_fract_x 
_atom_site_fract_y 
_atom_site_fract_z 
_atom_site_charge 
Zr1        Zr  0.15807161  0.72996234  0.09856797     2.17500
O2          O  0.09517369  0.66093264  0.06172717    -0.50900
O3          O  0.18012155  0.75195817  0.01444281    -0.74100
O4          O  0.08819101  0.73445107  0.08679827    -0.80900
O5          O  0.22093133  0.66452873  0.13203317    -0.82600
O6          O  0.09371468  0.79692547  0.12533220    -0.78200
O7          O  0.15881553  0.65751801  0.09141125    -0.89900
O8          O  0.24676438  0.82080440  0.01135702    -0.75800
O9          O  0.19033346  0.81135421  0.09479068    -0.85300
O10         O  0.23949208  0.76202421  0.09548159    -0.85000
O11         O  0.13275595  0.75010403  0.17122794    -0.71800
O12         O  0.17835962  0.70582108  0.17132398    -0.83900
Zr13       Zr  0.26884365  0.84190234  0.23785359     2.26400
Zr14       Zr  0.16680721  0.83235565  0.16751890     2.06300
Zr15       Zr  0.26011550  0.73962366  0.16881022     2.10000
Zr16       Zr  0.27175141  0.84327586  0.09310818     1.78800
O17         O  0.26240045  0.68505224  0.22481057    -0.92700
O18         O  0.27133453  0.90941930  0.05756509    -0.40500
O19         O  0.29371504  0.82125568  0.16571000    -0.77200
O20         O  0.24911773  0.86634058  0.16436550    -0.95800
O21         O  0.18737774  0.80950402  0.24083378    -0.89200
O22         O  0.23683388  0.76056515  0.24139290    -0.92000
C23         C  0.21278806  0.78597390  0.99161945     1.01800
C24         C  0.18492651  0.64213570  0.10605990     1.14700
C25         C  0.07225268  0.76059395  0.09948707     1.05500
O26         O  0.16668521  0.89010857  0.11458831    -0.94100
O27         O  0.20214984  0.90612671  0.20818748    -0.89900
O28         O  0.26394848  0.91174343  0.24827377    -0.83000
C29         C  0.23811935  0.92770540  0.23451406     1.12100
O30         O  0.08227587  0.65627164  0.23403174    -0.96100
Zr31       Zr  0.15532343  0.72808805  0.24317385     1.88900
O32         O  0.24604316  0.81972013  0.32201481    -0.72800
O33         O  0.11013521  0.83112635  0.22320839    -0.52000
O34         O  0.09298724  0.73501871  0.27982110    -0.96700
O35         O  0.15589670  0.66248210  0.28011425    -0.53900
O36         O  0.17866769  0.75151769  0.32503012    -0.73300
C37         C  0.21271335  0.78621907  0.34482236     0.99100
O38         O  0.33734544  0.90536212  0.27487519    -0.62100
O39         O  0.31648840  0.73767691  0.11479512    -0.56900
O40         O  0.34170828  0.84192566  0.24567402    -0.93600
O41         O  0.33455175  0.77883381  0.20699740    -0.92000
O42         O  0.33420140  0.83758649  0.05520571    -0.92400
O43         O  0.34559225  0.91415716  0.10072128    -0.91200
C44         C  0.35702931  0.81541148  0.23214435     1.17900
H45         H  0.24846616  0.75093450  0.06779713     0.33800
H46         H  0.26434697  0.89942197  0.16183494     0.44700
H47         H  0.24804344  0.75188379  0.26917904     0.38200
H48         H  0.09962512  0.73489823  0.17339812     0.34700
H49         H  0.28948028  0.91582194  0.02755845     0.26500
H50         H  0.09767229  0.84867505  0.20667335     0.32400
H51         H  0.08846109  0.72079006  0.31202557     0.38300
H52         H  0.34012347  0.85470843  0.02457824     0.32800
H53         H  0.32546130  0.71697635  0.13074780     0.31700
H54         H  0.28612789  0.67875968  0.21161124     0.33400
H55         H  0.14200904  0.65939400  0.31232721     0.32300
H56         H  0.35111971  0.91837591  0.13582720     0.36300
H57         H  0.34822138  0.93165568  0.25235802     0.29100
H58         H  0.08626621  0.67152485  0.03255605     0.33300
H59         H  0.06956768  0.64704302  0.26691229     0.36100
H60         H  0.29891551  0.72029328  0.08608676     0.28700
H61         H  0.32636851  0.91447354  0.30365242     0.41600
H62         H  0.16058168  0.87620251  0.08207699     0.31700
H63         H  0.23926690  0.89734470  0.04645303     0.39300
H64         H  0.18871039  0.67308756  0.28670947     0.31100
H65         H  0.08445316  0.79884185  0.22289983     0.31200
H66         H  0.06863569  0.65020458  0.08394130     0.31500
Zr67       Zr  0.15747380  0.72944185  0.59868341     2.17500
O68         O  0.09404246  0.66039611  0.56239254    -0.50900
O69         O  0.17971694  0.75157321  0.51452192    -0.74100
O70         O  0.08784665  0.73436195  0.58678908    -0.80900
O71         O  0.22072198  0.66432470  0.63117741    -0.82600
O72         O  0.09346219  0.79671224  0.62569813    -0.78200
O73         O  0.15808333  0.65692034  0.59132838    -0.89900
O74         O  0.24571126  0.82101835  0.51163675    -0.75800
O75         O  0.18988261  0.81084665  0.59503121    -0.85300
O76         O  0.23890759  0.76147585  0.59563072    -0.85000
O77         O  0.13236794  0.74972549  0.67143893    -0.71800
O78         O  0.17774862  0.70513621  0.67135136    -0.83900
Zr79       Zr  0.26837306  0.84129714  0.73792331     2.26400
Zr80       Zr  0.16653902  0.83204602  0.66775384     2.06300
Zr81       Zr  0.25950442  0.73894684  0.66892250     2.10000
Zr82       Zr  0.27130401  0.84276641  0.59331154     1.78800
O83         O  0.25995092  0.68396899  0.72572201    -0.92700
O84         O  0.27168989  0.90998535  0.55961288    -0.40500
O85         O  0.29324175  0.82062356  0.66581756    -0.77200
O86         O  0.24881353  0.86594609  0.66456001    -0.95800
O87         O  0.18688409  0.80885085  0.74098944    -0.89200
O88         O  0.23633377  0.75995347  0.74150677    -0.92000
C89         C  0.21207424  0.78597503  0.49178364     1.01800
C90         C  0.18451608  0.64176544  0.60554762     1.14700
C91         C  0.07201941  0.76056013  0.59962984     1.05500
O92         O  0.16787105  0.88962835  0.61347193    -0.94100
O93         O  0.20219784  0.90597499  0.70838585    -0.89900
O94         O  0.26416263  0.91157793  0.74807228    -0.83000
C95         C  0.23838527  0.92764411  0.73443140     1.12100
O96         O  0.08129253  0.65613938  0.73367725    -0.96100
Zr97       Zr  0.15481491  0.72739712  0.74327249     1.88900
O98         O  0.24542258  0.81918509  0.82190824    -0.72800
O99         O  0.10962425  0.83209578  0.72222840    -0.52000
O100        O  0.09281088  0.73426158  0.78084576    -0.96700
O101        O  0.15552038  0.66155001  0.77947158    -0.53900
O102        O  0.17854016  0.75053369  0.82511628    -0.73300
C103        C  0.21242496  0.78549089  0.84478305     0.99100
O104        O  0.33631161  0.90391420  0.77660038    -0.62100
O105        O  0.31606435  0.73562397  0.61638606    -0.56900
O106        O  0.34136574  0.84142964  0.74510557    -0.93600
O107        O  0.33419694  0.77825004  0.70660793    -0.92000
O108        O  0.33289832  0.83619635  0.55454367    -0.92400
O109        O  0.34610557  0.91272982  0.59988166    -0.91200
C110        C  0.35673308  0.81494398  0.73158519     1.17900
H111        H  0.24785054  0.75039701  0.56791720     0.33800
H112        H  0.26413101  0.89902341  0.66195503     0.44700
H113        H  0.24758030  0.75130024  0.76928255     0.38200
H114        H  0.09923806  0.73459361  0.67359031     0.34700
H115        H  0.29095604  0.91762868  0.53030035     0.26500
H116        H  0.09658411  0.84851363  0.70448307     0.32400
H117        H  0.08826509  0.71957532  0.81280001     0.38300
H118        H  0.33825601  0.85273783  0.52360690     0.32800
H119        H  0.32123369  0.71156524  0.63065740     0.31700
H120        H  0.28170016  0.67526383  0.71179579     0.33400
H121        H  0.13988472  0.65701435  0.81089418     0.32300
H122        H  0.35140838  0.91798946  0.63492748     0.36300
H123        H  0.34789057  0.93050581  0.75439593     0.29100
H124        H  0.08524066  0.67087996  0.53306506     0.33300
H125        H  0.06899787  0.64616894  0.76658588     0.36100
H126        H  0.29969068  0.72194313  0.58586140     0.28700
H127        H  0.32483798  0.91282278  0.80513246     0.41600
H128        H  0.16021678  0.87471496  0.58143349     0.31700
H129        H  0.24003548  0.89814366  0.54729862     0.39300
H130        H  0.18810869  0.67276508  0.78789941     0.31100
H131        H  0.08431802  0.79964553  0.72326648     0.31200
H132        H  0.06756340  0.65006206  0.58462143     0.31500
Zr133      Zr  0.58697668  0.73112205  0.40266455     2.17500
O134        O  0.58146300  0.66227956  0.43893025    -0.50900
O135        O  0.58713208  0.75336514  0.48680809    -0.74100
O136        O  0.66168447  0.73614628  0.41382464    -0.80900
O137        O  0.45812020  0.66486816  0.37097934    -0.82600
O138        O  0.71837955  0.79885415  0.37522621    -0.78200
O139        O  0.51388452  0.65867242  0.41117531    -0.89900
O140        O  0.58732070  0.82111584  0.48989072    -0.75800
O141        O  0.63555222  0.81265990  0.40636486    -0.85300
O142        O  0.53668755  0.76193892  0.40559938    -0.85000
O143        O  0.63221561  0.75147966  0.32986183    -0.71800
O144        O  0.54228575  0.70619873  0.32994827    -0.83900
Zr145      Zr  0.58688047  0.84199164  0.26344838     2.26400
Zr146      Zr  0.68009813  0.83376545  0.33348224     2.06300
Zr147      Zr  0.49361048  0.73908831  0.33217329     2.10000
Zr148      Zr  0.58491896  0.84325104  0.40804916     1.78800
O149        O  0.43888678  0.68386590  0.27488279    -0.92700
O150        O  0.64993387  0.91039150  0.44464457    -0.40500
O151        O  0.54108709  0.82086675  0.33536387    -0.77200
O152        O  0.63100507  0.86680095  0.33701983    -0.95800
O153        O  0.63652835  0.81039677  0.26022074    -0.89200
O154        O  0.53795447  0.76057317  0.25966684    -0.92000
C155        C  0.58744923  0.78685599  0.50964471     1.01800
C156        C  0.47210939  0.64299056  0.39717506     1.14700
C157        C  0.70372226  0.76243982  0.40082604     1.05500
O158        O  0.73988257  0.89136631  0.38512166    -0.94100
O159        O  0.71781163  0.90806880  0.29377800    -0.89900
O160        O  0.66111475  0.91259900  0.25354666    -0.83000
C161        C  0.70298142  0.92921848  0.26748570     1.12100
O162        O  0.58983711  0.65774073  0.26711454    -0.96100
Zr163      Zr  0.58750809  0.72884404  0.25797646     1.88900
O164        O  0.58780394  0.82001898  0.17932484    -0.72800
O165        O  0.73393803  0.83170872  0.27601004    -0.52000
O166        O  0.65692684  0.73588717  0.22160017    -0.96700
O167        O  0.52131910  0.66257537  0.22152647    -0.53900
O168        O  0.58736301  0.75211530  0.17611315    -0.73300
C169        C  0.58778638  0.78668345  0.15643067     0.99100
O170        O  0.58090728  0.90443114  0.22555856    -0.62100
O171        O  0.43304020  0.73522073  0.38396446    -0.56900
O172        O  0.51380783  0.84149234  0.25617485    -0.93600
O173        O  0.45791040  0.77811097  0.29461605    -0.92000
O174        O  0.51441318  0.83435081  0.44333445    -0.92400
O175        O  0.58058469  0.91333880  0.40148397    -0.91200
C176        C  0.47196005  0.81483236  0.26974741     1.17900
H177        H  0.51660351  0.75058530  0.43328120     0.33800
H178        H  0.64856551  0.89989075  0.33977650     0.44700
H179        H  0.51809709  0.75177741  0.23184022     0.38200
H180        H  0.65031480  0.73651964  0.32755030     0.34700
H181        H  0.63791523  0.91489235  0.47549132     0.26500
H182        H  0.76473740  0.85182160  0.29025212     0.32400
H183        H  0.64743009  0.72225057  0.18910707     0.38300
H184        H  0.52370671  0.84905108  0.47539530     0.32800
H185        H  0.40405181  0.70988657  0.37045546     0.31700
H186        H  0.40821117  0.67468417  0.28858115     0.33400
H187        H  0.53238158  0.65880643  0.18974216     0.32300
H188        H  0.58338947  0.92012016  0.36658749     0.36300
H189        H  0.59569227  0.93084078  0.24805962     0.29100
H190        H  0.60128825  0.67292669  0.46790282     0.29700
H191        H  0.59235100  0.64799721  0.23415264     0.36100
H192        H  0.43662163  0.72317608  0.41516432     0.28700
H193        H  0.60138470  0.91383086  0.19706728     0.41600
H194        H  0.73042854  0.87942627  0.41821307     0.31700
H195        H  0.67149108  0.89974118  0.45414968     0.39300
H196        H  0.49931484  0.67315129  0.21389227     0.31100
H197        H  0.72926184  0.80022035  0.27858932     0.31200
H198        H  0.59710620  0.65168978  0.41635390     0.31500
Zr199      Zr  0.58688346  0.73102611  0.90249374     2.17500
O200        O  0.58129102  0.66164470  0.93747122    -0.50900
O201        O  0.58757979  0.75341988  0.98665472    -0.74100
O202        O  0.66157035  0.73602320  0.91374813    -0.80900
O203        O  0.45778166  0.66537647  0.87152711    -0.82600
O204        O  0.71830874  0.79882926  0.87530333    -0.78200
O205        O  0.51346780  0.65895046  0.91162026    -0.89900
O206        O  0.58707307  0.82083207  0.98985949    -0.75800
O207        O  0.63559106  0.81256967  0.90623289    -0.85300
O208        O  0.53686285  0.76218456  0.90575285    -0.85000
O209        O  0.63213313  0.75149426  0.82966622    -0.71800
O210        O  0.54188345  0.70616667  0.83000178    -0.83900
Zr211      Zr  0.58686105  0.84205916  0.76355789     2.26400
Zr212      Zr  0.68013138  0.83380204  0.83338579     2.06300
Zr213      Zr  0.49353895  0.73945006  0.83251280     2.10000
Zr214      Zr  0.58526561  0.84351060  0.90813528     1.78800
O215        O  0.43879687  0.68429474  0.77519793    -0.92700
O216        O  0.65049131  0.90994128  0.94539174    -0.40500
O217        O  0.54122430  0.82119192  0.83559742    -0.77200
O218        O  0.63118641  0.86698327  0.83696904    -0.95800
O219        O  0.63631105  0.81024615  0.76029749    -0.89200
O220        O  0.53770886  0.76067316  0.75991688    -0.92000
C221        C  0.58763034  0.78676111  0.00953818     1.01800
C222        C  0.47168888  0.64342524  0.89769976     1.14700
C223        C  0.70364071  0.76239910  0.90089782     1.05500
O224        O  0.73908048  0.89175016  0.88544937    -0.94100
O225        O  0.71784084  0.90799344  0.79336040    -0.89900
O226        O  0.66124423  0.91232090  0.75270922    -0.83000
C227        C  0.70308793  0.92901980  0.76675889     1.12100
O228        O  0.59065375  0.65837211  0.76800538    -0.96100
Zr229      Zr  0.58707290  0.72873348  0.75802887     1.88900
O230        O  0.58773649  0.82010076  0.67944981    -0.72800
O231        O  0.73512581  0.83289024  0.77669308    -0.52000
O232        O  0.65589047  0.73613375  0.71975970    -0.96700
O233        O  0.52065676  0.66201185  0.72251586    -0.53900
O234        O  0.58610259  0.75160980  0.67619253    -0.73300
C235        C  0.58709479  0.78646741  0.65653862     0.99100
O236        O  0.58110327  0.90515456  0.72711504    -0.62100
O237        O  0.43294460  0.73570383  0.88418833    -0.56900
O238        O  0.51372673  0.84132077  0.75539276    -0.93600
O239        O  0.45807607  0.77879624  0.79517151    -0.92000
O240        O  0.51540163  0.83614771  0.94346206    -0.92400
O241        O  0.58246440  0.91444532  0.90171842    -0.91200
C242        C  0.47198800  0.81504222  0.76953237     1.17900
H243        H  0.51683485  0.75088454  0.93348328     0.33800
H244        H  0.64881786  0.90009007  0.83951688     0.44700
H245        H  0.51777693  0.75188213  0.73214507     0.38200
H246        H  0.65025297  0.73655513  0.82732370     0.34700
H247        H  0.63797049  0.91543502  0.97535759     0.26500
H248        H  0.76552986  0.85164511  0.79228785     0.32400
H249        H  0.64543204  0.72091154  0.68806151     0.38300
H250        H  0.52537409  0.85252659  0.97464314     0.32800
H251        H  0.40397407  0.71018273  0.87086605     0.31700
H252        H  0.40816014  0.67672761  0.78775550     0.33400
H253        H  0.53141234  0.65811439  0.69060792     0.32300
H254        H  0.58331052  0.92019221  0.86670237     0.36300
H255        H  0.59673587  0.93151628  0.74956467     0.29100
H256        H  0.60077107  0.67182655  0.96670578     0.33300
H257        H  0.59224747  0.64791529  0.73510884     0.36100
H258        H  0.43667150  0.72397297  0.91552425     0.28700
H259        H  0.60085235  0.91430397  0.69806444     0.41600
H260        H  0.72993780  0.87930432  0.91841277     0.31700
H261        H  0.67088579  0.89840640  0.95654037     0.39300
H262        H  0.49846440  0.67241296  0.71514017     0.31100
H263        H  0.72948045  0.80097850  0.77774965     0.31200
H264        H  0.59727930  0.65155545  0.91477000     0.31500
Zr265      Zr  0.26944250  0.41337294  0.93306794     2.17500
O266        O  0.33899529  0.41922018  0.89807570    -0.50900
O267        O  0.24700206  0.41260510  0.84898221    -0.74100
O268        O  0.26414592  0.33878488  0.92059397    -0.80900
O269        O  0.33525714  0.54213750  0.96511596    -0.82600
O270        O  0.20136674  0.28192574  0.95899930    -0.78200
O271        O  0.34152253  0.48678920  0.92405043    -0.89900
O272        O  0.17932925  0.41265621  0.84598942    -0.75800
O273        O  0.18791369  0.36459624  0.92945087    -0.85300
O274        O  0.23827624  0.46338034  0.93057526    -0.85000
O275        O  0.24908315  0.36772937  0.00551451    -0.71800
O276        O  0.29435146  0.45775693  0.00598252    -0.83900
Zr277      Zr  0.15835059  0.41267848  0.07247786     2.26400
Zr278      Zr  0.16673146  0.31983710  0.00206211     2.06300
Zr279      Zr  0.26120806  0.50620319  0.00421373     2.10000
Zr280      Zr  0.15690610  0.41479278  0.92791361     1.78800
O281        O  0.31653820  0.56023225  0.06194493    -0.92700
O282        O  0.09035988  0.34880235  0.89172418    -0.40500
O283        O  0.17944389  0.45862958  0.00070624    -0.77200
O284        O  0.13346828  0.36868531  0.99885267    -0.95800
O285        O  0.19010704  0.36319404  0.07543693    -0.89200
O286        O  0.23980423  0.46158610  0.07638354    -0.92000
C287        C  0.21350394  0.41226291  0.82618749     1.01800
C288        C  0.35712104  0.52843384  0.93846099     1.14700
C289        C  0.23768257  0.29668468  0.93313781     1.05500
O290        O  0.10876916  0.26046400  0.95040316    -0.94100
O291        O  0.09241956  0.28200892  0.04201932    -0.89900
O292        O  0.08784745  0.33842672  0.08286758    -0.83000
C293        C  0.07122620  0.29665420  0.06860749     1.12100
O294        O  0.34251442  0.40930228  0.06756077    -0.96100
Zr295      Zr  0.27169407  0.41215702  0.07763810     1.88900
O296        O  0.18031514  0.41155115  0.15644654    -0.72800
O297        O  0.16902718  0.26569430  0.05875177    -0.52000
O298        O  0.26383855  0.34252361  0.11407897    -0.96700
O299        O  0.33791320  0.47792191  0.11470970    -0.53900
O300        O  0.24845912  0.41237548  0.15956005    -0.73300
C301        C  0.21374954  0.41175982  0.17927506     0.99100
O302        O  0.09557402  0.41879398  0.10951941    -0.62100
O303        O  0.26533859  0.56751220  0.95368665    -0.56900
O304        O  0.15894411  0.48560449  0.08094905    -0.93600
O305        O  0.22217847  0.54162463  0.04242010    -0.92000
O306        O  0.16322442  0.48350724  0.89095654    -0.92400
O307        O  0.08635647  0.41819955  0.93594857    -0.91200
C308        C  0.18557231  0.52746818  0.06758193     1.17900
H309        H  0.24958024  0.48354477  0.90299203     0.33800
H310        H  0.10035379  0.35106236  0.99627892     0.44700
H311        H  0.24856496  0.48133601  0.10432447     0.38200
H312        H  0.26402300  0.34958952  0.00740031     0.34700
H313        H  0.08397831  0.36101645  0.86210783     0.26500
H314        H  0.14803238  0.23495448  0.04485624     0.32400
H315        H  0.27902131  0.35235268  0.14585737     0.38300
H316        H  0.14541310  0.47249563  0.86068096     0.32800
H317        H  0.29145632  0.59617591  0.96679640     0.31700
H318        H  0.32516575  0.59105465  0.04916992     0.33400
H319        H  0.34233905  0.46619274  0.14573988     0.32300
H320        H  0.08136654  0.41786994  0.97109352     0.36300
H321        H  0.06920094  0.40355123  0.08703814     0.29100
H322        H  0.32894778  0.40000028  0.86863795     0.33300
H323        H  0.35227519  0.40638879  0.10034828     0.36100
H324        H  0.27630768  0.56357897  0.92193624     0.28700
H325        H  0.08623217  0.39877559  0.13833343     0.41600
H326        H  0.12046112  0.27020096  0.91727605     0.31700
H327        H  0.10219781  0.32883461  0.87994279     0.39300
H328        H  0.32691199  0.49926477  0.12391823     0.31100
H329        H  0.20017772  0.26965155  0.05507365     0.31200
H330        H  0.34891647  0.40301166  0.92060007     0.31500
Zr331      Zr  0.26958185  0.41327582  0.43281327     2.17500
O332        O  0.33871926  0.41870913  0.39710360    -0.50900
O333        O  0.24718206  0.41292366  0.34882915    -0.74100
O334        O  0.26401409  0.33859379  0.42012075    -0.80900
O335        O  0.33584977  0.54182068  0.46535048    -0.82600
O336        O  0.20123178  0.28168399  0.45843135    -0.78200
O337        O  0.34191344  0.48647463  0.42401913    -0.89900
O338        O  0.17920016  0.41236401  0.34596931    -0.75800
O339        O  0.18803080  0.36472055  0.42909342    -0.85300
O340        O  0.23857858  0.46341568  0.43035164    -0.85000
O341        O  0.24915500  0.36752634  0.50517762    -0.71800
O342        O  0.29434533  0.45750786  0.50584605    -0.83900
Zr343      Zr  0.15850725  0.41254971  0.57240350     2.26400
Zr344      Zr  0.16679600  0.31973996  0.50155031     2.06300
Zr345      Zr  0.26144756  0.50616479  0.50400601     2.10000
Zr346      Zr  0.15719666  0.41509436  0.42787314     1.78800
O347        O  0.31689370  0.56166082  0.56061541    -0.92700
O348        O  0.08995207  0.34966829  0.39194368    -0.40500
O349        O  0.17965008  0.45868528  0.50078394    -0.77200
O350        O  0.13374077  0.36878931  0.49864388    -0.95800
O351        O  0.19002033  0.36285738  0.57511954    -0.89200
O352        O  0.23998096  0.46148007  0.57619274    -0.92000
C353        C  0.21350352  0.41227767  0.32611873     1.01800
C354        C  0.35765060  0.52809763  0.43857294     1.14700
C355        C  0.23754550  0.29647572  0.43257486     1.05500
O356        O  0.10879543  0.26034551  0.44988056    -0.94100
O357        O  0.09248955  0.28181245  0.54139806    -0.89900
O358        O  0.08810514  0.33821460  0.58248574    -0.83000
C359        C  0.07139600  0.29647997  0.56809571     1.12100
O360        O  0.34316018  0.41041921  0.56779346    -0.96100
Zr361      Zr  0.27157933  0.41182761  0.57744752     1.88900
O362        O  0.18040086  0.41170592  0.65645592    -0.72800
O363        O  0.16937437  0.26570508  0.55816302    -0.52000
O364        O  0.26351469  0.34179362  0.61302981    -0.96700
O365        O  0.33780509  0.47711521  0.61506936    -0.53900
O366        O  0.24818858  0.41184375  0.65943168    -0.73300
C367        C  0.21369823  0.41160934  0.67924139     0.99100
O368        O  0.09523197  0.41792973  0.60927575    -0.62100
O369        O  0.26401443  0.56584926  0.45194506    -0.56900
O370        O  0.15894509  0.48535734  0.58086873    -0.93600
O371        O  0.22258950  0.54147597  0.54295410    -0.92000
O372        O  0.16521778  0.48480236  0.39164658    -0.92400
O373        O  0.08697820  0.41919577  0.43534046    -0.91200
C374        C  0.18576568  0.52726450  0.56777968     1.17900
H375        H  0.24990787  0.48357862  0.40276921     0.33800
H376        H  0.10062751  0.35122759  0.49603000     0.44700
H377        H  0.24882316  0.48124140  0.60413146     0.38200
H378        H  0.26406277  0.34935276  0.50701170     0.34700
H379        H  0.08467489  0.36164807  0.36151964     0.26500
H380        H  0.14876501  0.23496417  0.54405538     0.32400
H381        H  0.27750042  0.35103275  0.64539883     0.38300
H382        H  0.14877236  0.47461572  0.36053166     0.32800
H383        H  0.28726738  0.59521364  0.46685447     0.31700
H384        H  0.32722381  0.59207799  0.54568477     0.33400
H385        H  0.34049005  0.46586645  0.64714432     0.32300
H386        H  0.08164498  0.41858713  0.47044097     0.36300
H387        H  0.06910668  0.40301326  0.58645350     0.29100
H388        H  0.32839811  0.39965601  0.36755549     0.33300
H389        H  0.35173531  0.40551587  0.60041426     0.36100
H390        H  0.27857936  0.56404533  0.42166264     0.28700
H391        H  0.08558331  0.39750790  0.63778589     0.41600
H392        H  0.12083084  0.26965150  0.41678915     0.31700
H393        H  0.10091947  0.32856265  0.38161624     0.39300
H394        H  0.32775019  0.49967594  0.62194459     0.31100
H395        H  0.20070283  0.27006688  0.55471451     0.31200
H396        H  0.34861510  0.40224325  0.41930180     0.31500
Zr397      Zr  0.42166795  0.26128822  0.40005115     2.17500
O398        O  0.42714120  0.33053744  0.43531758    -0.50900
O399        O  0.42164599  0.23946497  0.48419212    -0.74100
O400        O  0.34683547  0.25589623  0.41204309    -0.80900
O401        O  0.55056305  0.32661619  0.36918012    -0.82600
O402        O  0.28991780  0.19304873  0.37380381    -0.78200
O403        O  0.49490340  0.33344793  0.40897439    -0.89900
O404        O  0.42143044  0.17170650  0.48733569    -0.75800
O405        O  0.37310985  0.17980048  0.40421074    -0.85300
O406        O  0.47196646  0.23041849  0.40253478    -0.85000
O407        O  0.37584662  0.24048245  0.32773920    -0.71800
O408        O  0.46620815  0.28613464  0.32714896    -0.83900
Zr409      Zr  0.42084737  0.14994615  0.26082551     2.26400
Zr410      Zr  0.32808189  0.15820290  0.33174355     2.06300
Zr411      Zr  0.51473748  0.25303839  0.32884204     2.10000
Zr412      Zr  0.42362329  0.14912605  0.40550629     1.78800
O413        O  0.56863260  0.30850743  0.27112399    -0.92700
O414        O  0.35827953  0.08227706  0.44209060    -0.40500
O415        O  0.46706321  0.17129980  0.33246570    -0.77200
O416        O  0.37721689  0.12524357  0.33472606    -0.95800
O417        O  0.37127005  0.18158755  0.25822925    -0.89200
O418        O  0.46986499  0.23136802  0.25677622    -0.92000
C419        C  0.42131595  0.20603185  0.50705497     1.01800
C420        C  0.53672620  0.34870498  0.39534740     1.14700
C421        C  0.30470297  0.22947554  0.39943015     1.05500
O422        O  0.26948984  0.10071365  0.38449998    -0.94100
O423        O  0.29000076  0.08383756  0.29221687    -0.89900
O424        O  0.34639432  0.07942949  0.25108800    -0.83000
C425        C  0.30464053  0.06272301  0.26554233     1.12100
O426        O  0.41677233  0.33343410  0.26689623    -0.96100
Zr427      Zr  0.42033434  0.26315246  0.25569852     1.88900
O428        O  0.41973642  0.17208004  0.17678539    -0.72800
O429        O  0.27335648  0.15945753  0.27507798    -0.52000
O430        O  0.35126294  0.25576671  0.21822101    -0.96700
O431        O  0.48614607  0.32961234  0.21907033    -0.53900
O432        O  0.42095991  0.24037904  0.17373627    -0.73300
C433        C  0.42016689  0.20563443  0.15396489     0.99100
O434        O  0.42625500  0.08717037  0.22281938    -0.62100
O435        O  0.57656945  0.25685622  0.37831829    -0.56900
O436        O  0.49361117  0.14995150  0.25307740    -0.93600
O437        O  0.54992794  0.21372030  0.29061490    -0.92000
O438        O  0.49368186  0.15749866  0.44128070    -0.92400
O439        O  0.42748977  0.07878201  0.39880297    -0.91200
C440        C  0.53558554  0.17671926  0.26610450     1.17900
H441        H  0.49221067  0.24187864  0.43006302     0.33800
H442        H  0.35970802  0.09214984  0.33745415     0.44700
H443        H  0.48955839  0.24009494  0.22878748     0.38200
H444        H  0.35765702  0.25535434  0.32563092     0.34700
H445        H  0.37031281  0.07741076  0.47269927     0.26500
H446        H  0.24291284  0.14087322  0.29066962     0.32400
H447        H  0.36179818  0.27225429  0.18716895     0.38300
H448        H  0.48393139  0.14211950  0.47296990     0.32800
H449        H  0.60489812  0.28434360  0.36662453     0.31700
H450        H  0.59940964  0.31540152  0.28251019     0.33400
H451        H  0.47401863  0.33525330  0.18895063     0.32300
H452        H  0.42817854  0.07391816  0.36374263     0.36300
H453        H  0.41136617  0.06079673  0.24532625     0.29100
H454        H  0.40789810  0.32030661  0.46474092     0.33300
H455        H  0.41446989  0.34389419  0.23426186     0.36100
H456        H  0.57161113  0.26549954  0.41089622     0.28700
H457        H  0.40574891  0.07785618  0.19438142     0.41600
H458        H  0.27822275  0.11394346  0.41723311     0.31700
H459        H  0.33710573  0.09328335  0.45206224     0.39300
H460        H  0.50673911  0.31823730  0.20811742     0.31100
H461        H  0.27921862  0.19144664  0.27617474     0.31200
H462        H  0.41084288  0.34043000  0.41287806     0.31500
Zr463      Zr  0.42167584  0.26165269  0.90006272     2.17500
O464        O  0.42708654  0.33103877  0.93493759    -0.50900
O465        O  0.42135452  0.23957802  0.98424423    -0.74100
O466        O  0.34684023  0.25611673  0.91225120    -0.80900
O467        O  0.55057180  0.32737626  0.86823239    -0.82600
O468        O  0.28999380  0.19334848  0.87382409    -0.78200
O469        O  0.49499083  0.33390843  0.90856764    -0.89900
O470        O  0.42088119  0.17168004  0.98719207    -0.75800
O471        O  0.37300440  0.18015818  0.90398913    -0.85300
O472        O  0.47187532  0.23065830  0.90260460    -0.85000
O473        O  0.37589638  0.24090203  0.82768152    -0.71800
O474        O  0.46620508  0.28641708  0.82719863    -0.83900
Zr475      Zr  0.42121976  0.15056738  0.76073065     2.26400
Zr476      Zr  0.32811948  0.15856733  0.83142991     2.06300
Zr477      Zr  0.51480427  0.25338482  0.82900221     2.10000
Zr478      Zr  0.42335355  0.14933249  0.90538968     1.78800
O479        O  0.56862322  0.30852268  0.77100412    -0.92700
O480        O  0.35722494  0.08275788  0.94131242    -0.40500
O481        O  0.46714908  0.17167537  0.83255251    -0.77200
O482        O  0.37727402  0.12564142  0.83443860    -0.95800
O483        O  0.37148648  0.18209070  0.75800797    -0.89200
O484        O  0.47014041  0.23200809  0.75679420    -0.92000
C485        C  0.42076049  0.20595316  0.00701722     1.01800
C486        C  0.53673247  0.34938349  0.89448752     1.14700
C487        C  0.30472379  0.22967135  0.89963301     1.05500
O488        O  0.26936405  0.10098916  0.88395752    -0.94100
O489        O  0.29046057  0.08408455  0.79185293    -0.89900
O490        O  0.34697987  0.07981348  0.75081584    -0.83000
C491        C  0.30519185  0.06298984  0.76522404     1.12100
O492        O  0.41565094  0.33335425  0.76618008    -0.96100
Zr493      Zr  0.42043834  0.26365515  0.75566067     1.88900
O494        O  0.42051501  0.17293333  0.67677209    -0.72800
O495        O  0.27295242  0.15930714  0.77503260    -0.52000
O496        O  0.35103748  0.25535925  0.71806226    -0.96700
O497        O  0.48606282  0.33076062  0.71966140    -0.53900
O498        O  0.42173031  0.24121600  0.67368484    -0.73300
C499        C  0.42105658  0.20651661  0.65394199     0.99100
O500        O  0.42723798  0.08865499  0.72150364    -0.62100
O501        O  0.57683987  0.25836159  0.87905137    -0.56900
O502        O  0.49390002  0.15016536  0.75382252    -0.93600
O503        O  0.55002808  0.21344766  0.79215124    -0.92000
O504        O  0.49214235  0.15626647  0.94288607    -0.92400
O505        O  0.42681153  0.07878815  0.89823257    -0.91200
C506        C  0.53577655  0.17658796  0.76741250     1.17900
H507        H  0.49204781  0.24202082  0.93019252     0.33800
H508        H  0.35982765  0.09254760  0.83714517     0.44700
H509        H  0.48991344  0.24084117  0.72886268     0.38200
H510        H  0.35768127  0.25575457  0.82565020     0.34700
H511        H  0.36936159  0.07629639  0.97094083     0.26500
H512        H  0.24255582  0.14010034  0.79050653     0.32400
H513        H  0.36135482  0.27139167  0.68675233     0.38300
H514        H  0.48087322  0.13738489  0.97246591     0.32800
H515        H  0.60506621  0.28580643  0.86710049     0.31700
H516        H  0.59897021  0.31251027  0.77999453     0.33400
H517        H  0.47462611  0.33498406  0.68834378     0.32300
H518        H  0.42832452  0.07449507  0.86316895     0.36300
H519        H  0.41262074  0.06202643  0.74371552     0.29100
H520        H  0.40772740  0.32093175  0.96428251     0.33300
H521        H  0.41399066  0.34391600  0.73338632     0.36100
H522        H  0.57179254  0.26736451  0.91141027     0.28700
H523        H  0.40661219  0.07948237  0.69317329     0.41600
H524        H  0.27854210  0.11371616  0.91682841     0.31700
H525        H  0.33723292  0.09457693  0.95308249     0.39300
H526        H  0.50804485  0.32039259  0.71101812     0.31100
H527        H  0.27818792  0.19105833  0.77656284     0.31200
H528        H  0.41090428  0.34089343  0.91229186     0.31500
Zr529      Zr  0.73878933  0.14973549  0.23684941     2.17500
O530        O  0.67041836  0.08756572  0.27542487    -0.50900
O531        O  0.76155930  0.17195043  0.32092096    -0.74100
O532        O  0.74296701  0.07964821  0.24779387    -0.80900
O533        O  0.67294073  0.21223683  0.20359646    -0.82600
O534        O  0.80533579  0.08529882  0.20882689    -0.78200
O535        O  0.66581568  0.14967911  0.24330046    -0.89900
O536        O  0.83005572  0.23896912  0.32397149    -0.75800
O537        O  0.82021332  0.18188525  0.24013758    -0.85300
O538        O  0.77091860  0.23108967  0.24023854    -0.85000
O539        O  0.75853227  0.12463756  0.16371859    -0.71800
O540        O  0.71439401  0.17030000  0.16445946    -0.83900
Zr541      Zr  0.85037921  0.26087697  0.09757910     2.26400
Zr542      Zr  0.84086212  0.15856016  0.16704247     2.06300
Zr543      Zr  0.74822977  0.25195308  0.16723049     2.10000
Zr544      Zr  0.85223175  0.26329937  0.24213666     1.78800
O545        O  0.69364264  0.25398431  0.11100124    -0.92700
O546        O  0.91803869  0.26197687  0.27747039    -0.40500
O547        O  0.82997304  0.28560374  0.16995729    -0.77200
O548        O  0.87501095  0.24082133  0.17062507    -0.95800
O549        O  0.81772896  0.17946940  0.09412176    -0.89200
O550        O  0.76905758  0.22907369  0.09437701    -0.92000
C551        C  0.79549503  0.20476870  0.34373165     1.01800
C552        C  0.65039279  0.17585182  0.22896533     1.14700
C553        C  0.76909358  0.06377856  0.23480442     1.05500
O554        O  0.89888726  0.15964080  0.22048555    -0.94100
O555        O  0.91445322  0.19384165  0.12587412    -0.89900
O556        O  0.92032342  0.25617845  0.08681230    -0.83000
C557        C  0.93616692  0.23009890  0.09999778     1.12100
O558        O  0.66393801  0.07514369  0.10116608    -0.96100
Zr559      Zr  0.73631471  0.14763840  0.09217118     1.88900
O560        O  0.82799419  0.23837933  0.01350212    -0.72800
O561        O  0.84084334  0.10211937  0.11183986    -0.52000
O562        O  0.74327824  0.08532367  0.05571711    -0.96700
O563        O  0.67116032  0.14914424  0.05513933    -0.53900
O564        O  0.75957284  0.17124054  0.01032100    -0.73300
C565        C  0.79432994  0.20531972  0.99062578     0.99100
O566        O  0.91356070  0.32937042  0.06029090    -0.62100
O567        O  0.74582144  0.30786646  0.22151260    -0.56900
O568        O  0.85005794  0.33347432  0.08999975    -0.93600
O569        O  0.78692736  0.32619148  0.12880493    -0.92000
O570        O  0.84667534  0.32611737  0.27917949    -0.92400
O571        O  0.92375613  0.33665072  0.23531358    -0.91200
C572        C  0.82341311  0.34863885  0.10350100     1.17900
H573        H  0.75994343  0.23999246  0.26805892     0.33800
H574        H  0.90810779  0.25597251  0.17309029     0.44700
H575        H  0.76039190  0.24047418  0.06674221     0.38200
H576        H  0.74324604  0.09153285  0.16134133     0.34700
H577        H  0.92510196  0.28062679  0.30717972     0.26500
H578        H  0.85871477  0.09014520  0.12861883     0.32400
H579        H  0.72928084  0.08094657  0.02340485     0.38300
H580        H  0.86389180  0.33235970  0.30978688     0.32800
H581        H  0.72421726  0.31596576  0.20611877     0.31700
H582        H  0.68719674  0.27762440  0.12411494     0.33400
H583        H  0.66682969  0.13364060  0.02367145     0.32300
H584        H  0.92666506  0.34394135  0.20053572     0.36300
H585        H  0.93990867  0.34044886  0.08278316     0.29100
H586        H  0.68163159  0.07886778  0.30426853     0.33300
H587        H  0.65514797  0.06208998  0.06836690     0.36100
H588        H  0.72928839  0.29027541  0.25055850     0.28700
H589        H  0.92273264  0.31837844  0.03157130     0.41600
H590        H  0.88374648  0.15049127  0.25235196     0.31700
H591        H  0.90552015  0.23002107  0.28911021     0.39300
H592        H  0.68267026  0.18179756  0.04684106     0.31100
H593        H  0.80871641  0.07609689  0.11201101     0.31200
H594        H  0.65899484  0.06078181  0.25346791     0.31500
Zr595      Zr  0.85050902  0.26091134  0.59750824     2.17500
O596        O  0.91344840  0.32939468  0.55994718    -0.50900
O597        O  0.82858487  0.23838933  0.51340404    -0.74100
O598        O  0.92064286  0.25650871  0.58683599    -0.80900
O599        O  0.78725440  0.32635757  0.62930722    -0.82600
O600        O  0.91477797  0.19407102  0.62562768    -0.78200
O601        O  0.85006642  0.33352029  0.58989623    -0.89900
O602        O  0.76197764  0.16951499  0.51036265    -0.75800
O603        O  0.81822758  0.17947784  0.59431087    -0.85300
O604        O  0.76908117  0.22886922  0.59402847    -0.85000
O605        O  0.87542808  0.24129547  0.67069263    -0.71800
O606        O  0.82974608  0.28548032  0.66978687    -0.83900
Zr607      Zr  0.73908524  0.14976736  0.73673402     2.26400
Zr608      Zr  0.84153436  0.15903490  0.66750871     2.06300
Zr609      Zr  0.74798793  0.25163365  0.66695534     2.10000
Zr610      Zr  0.73678728  0.14759244  0.59210637     1.78800
O611        O  0.74660295  0.30667484  0.72310339    -0.92700
O612        O  0.73715906  0.08101735  0.55756160    -0.40500
O613        O  0.71438550  0.16994374  0.66427730    -0.77200
O614        O  0.75921896  0.12493432  0.66368997    -0.95800
O615        O  0.82055643  0.18236710  0.74033525    -0.89200
O616        O  0.77090148  0.23111158  0.73994464    -0.92000
C617        C  0.79594795  0.20430780  0.49059813     1.01800
C618        C  0.82362861  0.34882074  0.60381542     1.14700
C619        C  0.93646613  0.23036369  0.59983265     1.05500
O620        O  0.84328608  0.10142534  0.61557340    -0.94100
O621        O  0.80577917  0.08528625  0.70823902    -0.89900
O622        O  0.74367054  0.07981894  0.74760870    -0.83000
C623        C  0.76960100  0.06379141  0.73433307     1.12100
O624        O  0.92615005  0.33490101  0.73315885    -0.96100
Zr625      Zr  0.85242999  0.26377435  0.74216191     1.88900
O626        O  0.76137437  0.17223619  0.82082083    -0.72800
O627        O  0.89772097  0.16098595  0.72432856    -0.52000
O628        O  0.91453006  0.25715615  0.77963864    -0.96700
O629        O  0.85193060  0.32999813  0.77779689    -0.53900
O630        O  0.82841171  0.24073214  0.82401984    -0.73300
C631        C  0.79438539  0.20591599  0.84371196     0.99100
O632        O  0.67109589  0.08713014  0.77535464    -0.62100
O633        O  0.69149390  0.25400816  0.61364331    -0.56900
O634        O  0.66594579  0.14933556  0.74345664    -0.93600
O635        O  0.67315887  0.21228606  0.70456241    -0.92000
O636        O  0.67483900  0.15365110  0.55356724    -0.92400
O637        O  0.66272657  0.07681082  0.59904584    -0.91200
C638        C  0.65059103  0.17573012  0.72971042     1.17900
H639        H  0.76024793  0.23982740  0.56617707     0.33800
H640        H  0.74403463  0.09185012  0.66124975     0.44700
H641        H  0.75950720  0.23988391  0.76755675     0.38200
H642        H  0.90854494  0.25653527  0.67308030     0.34700
H643        H  0.71855615  0.07391871  0.52783434     0.26500
H644        H  0.90973085  0.14253416  0.70882284     0.32400
H645        H  0.91950516  0.27249989  0.81129061     0.38300
H646        H  0.66888009  0.13628077  0.52307395     0.32800
H647        H  0.68474650  0.27682021  0.62848795     0.31700
H648        H  0.72034434  0.31018270  0.71254803     0.33400
H649        H  0.86476613  0.33287054  0.81050883     0.32300
H650        H  0.65824322  0.07087108  0.63407151     0.36300
H651        H  0.65972036  0.06044737  0.75326165     0.29100
H652        H  0.92259976  0.31836292  0.53124295     0.33300
H653        H  0.93762977  0.34540095  0.76620940     0.36100
H654        H  0.70845528  0.26906732  0.58378231     0.28700
H655        H  0.68249268  0.07842060  0.80404698     0.41600
H656        H  0.84733857  0.11411555  0.58264708     0.31700
H657        H  0.76909115  0.09307654  0.54595930     0.39300
H658        H  0.81904195  0.31985817  0.78323593     0.31100
H659        H  0.92378284  0.19305795  0.72318216     0.31200
H660        H  0.93986839  0.34062225  0.58236083     0.31500
Zr661      Zr  0.73973320  0.57852407  0.93083248     2.17500
O662        O  0.67033537  0.57298803  0.89590932    -0.50900
O663        O  0.76242666  0.57959392  0.84670742    -0.74100
O664        O  0.74480565  0.65316926  0.91936169    -0.80900
O665        O  0.67349283  0.44956300  0.96178326    -0.82600
O666        O  0.80702869  0.70958652  0.95883290    -0.78200
O667        O  0.66743388  0.50545296  0.92171983    -0.89900
O668        O  0.82940214  0.57816423  0.84363558    -0.75800
O669        O  0.82128875  0.62698426  0.92731659    -0.85300
O670        O  0.77055761  0.52821450  0.92759766    -0.85000
O671        O  0.75991913  0.62342640  0.00384041    -0.71800
O672        O  0.71475500  0.53346020  0.00324721    -0.83900
Zr673      Zr  0.85037426  0.57803023  0.07001882     2.26400
Zr674      Zr  0.84224944  0.67135607  0.00022001     2.06300
Zr675      Zr  0.74762137  0.48482546  0.00080446     2.10000
Zr676      Zr  0.85194381  0.57642029  0.92542382     1.78800
O677        O  0.69174496  0.43007439  0.05764146    -0.92700
O678        O  0.91823595  0.64171774  0.88807327    -0.40500
O679        O  0.82942303  0.53242528  0.99795840    -0.77200
O680        O  0.87526490  0.62226746  0.99662658    -0.95800
O681        O  0.81862237  0.62750395  0.07330843    -0.89200
O682        O  0.76893125  0.52884679  0.07348086    -0.92000
C683        C  0.79561674  0.57925070  0.82389486     1.01800
C684        C  0.65169553  0.46366862  0.93561514     1.14700
C685        C  0.77090521  0.69509685  0.93274117     1.05500
O686        O  0.89980737  0.72973911  0.94737621    -0.94100
O687        O  0.91654727  0.70897771  0.04003200    -0.89900
O688        O  0.92074223  0.65238011  0.08080323    -0.83000
C689        C  0.93753469  0.69419198  0.06664879     1.12100
O690        O  0.66572165  0.57996208  0.06512600    -0.96100
Zr691      Zr  0.73706470  0.57823276  0.07544280     1.88900
O692        O  0.82850159  0.57890728  0.15420153    -0.72800
O693        O  0.84164801  0.72649721  0.05688752    -0.52000
O694        O  0.74395900  0.64702786  0.11307936    -0.96700
O695        O  0.67100941  0.51206780  0.11224062    -0.53900
O696        O  0.76009767  0.57754361  0.15729808    -0.73300
C697        C  0.79487491  0.57840159  0.17704362     0.99100
O698        O  0.91392159  0.57210550  0.10514815    -0.62100
O699        O  0.74420201  0.42461205  0.94882938    -0.56900
O700        O  0.84909399  0.50480706  0.07858576    -0.93600
O701        O  0.78663960  0.44922363  0.03859587    -0.92000
O702        O  0.84431576  0.50637874  0.89035966    -0.92400
O703        O  0.92281257  0.57341563  0.93186530    -0.91200
C704        C  0.82279765  0.46312591  0.06442391     1.17900
H705        H  0.75925309  0.50823648  0.89984395     0.33800
H706        H  0.90838566  0.63984500  0.99409120     0.44700
H707        H  0.76011359  0.50888110  0.10122514     0.38200
H708        H  0.74492438  0.64149339  0.00613250     0.34700
H709        H  0.92383548  0.62920217  0.85816823     0.26500
H710        H  0.85943329  0.75672291  0.04070885     0.32400
H711        H  0.72829333  0.63655646  0.14456928     0.38300
H712        H  0.86092234  0.51624669  0.85929023     0.32800
H713        H  0.71982344  0.39545609  0.96305998     0.31700
H714        H  0.68484485  0.39948518  0.04562778     0.33400
H715        H  0.66694563  0.52336865  0.14375130     0.32300
H716        H  0.92913791  0.57533395  0.96682777     0.36300
H717        H  0.93992647  0.58757120  0.08223490     0.29100
H718        H  0.68048613  0.59236477  0.86660919     0.33300
H719        H  0.65574249  0.58272937  0.09788410     0.36100
H720        H  0.73090616  0.42737942  0.91809792     0.28700
H721        H  0.92363842  0.59194224  0.13413755     0.41600
H722        H  0.88659471  0.72090032  0.91465599     0.31700
H723        H  0.90654516  0.66194712  0.87681728     0.39300
H724        H  0.68188165  0.49042130  0.12046083     0.31100
H725        H  0.80945337  0.72012963  0.05681161     0.31200
H726        H  0.66032798  0.58906836  0.91857644     0.31500
Zr727      Zr  0.73945552  0.57829859  0.43109447     2.17500
O728        O  0.66978421  0.57249446  0.39662206    -0.50900
O729        O  0.76148722  0.57840034  0.34685559    -0.74100
O730        O  0.74480885  0.65301863  0.41903583    -0.80900
O731        O  0.67346390  0.44953899  0.46332937    -0.82600
O732        O  0.80701694  0.70964601  0.45839264    -0.78200
O733        O  0.66727416  0.50490350  0.42231944    -0.89900
O734        O  0.82957625  0.57918103  0.34370050    -0.75800
O735        O  0.82098406  0.62715186  0.42733843    -0.85300
O736        O  0.77067816  0.52835777  0.42816823    -0.85000
O737        O  0.75986906  0.62365635  0.50382455    -0.71800
O738        O  0.71482535  0.53368983  0.50382927    -0.83900
Zr739      Zr  0.85076619  0.57864250  0.57004828     2.26400
Zr740      Zr  0.84222961  0.67169222  0.50017074     2.06300
Zr741      Zr  0.74794947  0.48526357  0.50157282     2.10000
Zr742      Zr  0.85202424  0.57696451  0.42547128     1.78800
O743        O  0.69217264  0.42994517  0.55808666    -0.92700
O744        O  0.91837213  0.64316960  0.38932049    -0.40500
O745        O  0.82970054  0.53294772  0.49809149    -0.77200
O746        O  0.87550017  0.62284587  0.49660655    -0.95800
O747        O  0.81893600  0.62808414  0.57338214    -0.89200
O748        O  0.76935031  0.52960648  0.57397587    -0.92000
C749        C  0.79511819  0.57898471  0.32397957     1.01800
C750        C  0.65158608  0.46327438  0.43678819     1.14700
C751        C  0.77090534  0.69500734  0.43226635     1.05500
O752        O  0.90017077  0.73069877  0.44812636    -0.94100
O753        O  0.91653311  0.70944314  0.53996950    -0.89900
O754        O  0.92085324  0.65302856  0.58097793    -0.83000
C755        C  0.93753668  0.69477483  0.56671819     1.12100
O756        O  0.66523843  0.57923100  0.56613966    -0.96100
Zr757      Zr  0.73737572  0.57892803  0.57570878     1.88900
O758        O  0.82906907  0.57962006  0.65418641    -0.72800
O759        O  0.84111608  0.72643118  0.55702735    -0.52000
O760        O  0.74403496  0.64840068  0.61136746    -0.96700
O761        O  0.67170904  0.51327695  0.61366295    -0.53900
O762        O  0.76110836  0.57915189  0.65744188    -0.73300
C763        C  0.79572941  0.57961315  0.67707965     0.99100
O764        O  0.91427870  0.57274635  0.60531320    -0.62100
O765        O  0.74545058  0.42576725  0.44918679    -0.56900
O766        O  0.85002141  0.50561994  0.57864236    -0.93600
O767        O  0.78660254  0.44968582  0.54028296    -0.92000
O768        O  0.84513440  0.50795750  0.38848582    -0.92400
O769        O  0.92247605  0.57327148  0.43247686    -0.91200
C770        C  0.82323433  0.46373347  0.56534795     1.17900
H771        H  0.75937962  0.50825771  0.40051027     0.33800
H772        H  0.90861750  0.64049102  0.49404029     0.44700
H773        H  0.76061132  0.50976254  0.60181761     0.38200
H774        H  0.74482609  0.64168763  0.50597455     0.34700
H775        H  0.92477010  0.63108154  0.35957302     0.26500
H776        H  0.86027175  0.75690809  0.54175052     0.32400
H777        H  0.73181810  0.63946593  0.64445112     0.38300
H778        H  0.86156448  0.51852335  0.35738530     0.32800
H779        H  0.72206826  0.39637672  0.46392379     0.31700
H780        H  0.68675527  0.39962293  0.54684508     0.33400
H781        H  0.66890361  0.52453003  0.64572539     0.32300
H782        H  0.92864373  0.57523688  0.46747864     0.36300
H783        H  0.94045391  0.58856870  0.58265942     0.29100
H784        H  0.67970537  0.59141248  0.36699743     0.33300
H785        H  0.65634371  0.58365794  0.59882878     0.36100
H786        H  0.73103218  0.42777189  0.41892434     0.28700
H787        H  0.92365979  0.59228462  0.63451952     0.41600
H788        H  0.88738832  0.72199624  0.41523094     0.31700
H789        H  0.90640882  0.66307814  0.37776263     0.39300
H790        H  0.68214927  0.49103716  0.62056989     0.31100
H791        H  0.80930775  0.72108399  0.55555150     0.31200
H792        H  0.66015748  0.58904234  0.41908656     0.31500
C793        C  0.79532057  0.57986841  0.77219140    -0.12800
C794        C  0.79659703  0.57994336  0.72877829    -0.14400
C795        C  0.79567682  0.57881421  0.22879175    -0.12800
C796        C  0.79452460  0.57909263  0.27222898    -0.14400
C797        C  0.83404902  0.42905594  0.57937711    -0.12800
C798        C  0.83431435  0.39430260  0.58983853    -0.14400
C799        C  0.83399827  0.39393781  0.08920677    -0.12800
C800        C  0.83362814  0.42853936  0.07848246    -0.14400
C801        C  0.79374434  0.20506104  0.89545302    -0.12800
C802        C  0.79500882  0.20608632  0.93888898    -0.14400
C803        C  0.79671845  0.20483564  0.43887194    -0.12800
C804        C  0.79524633  0.20374800  0.39545121    -0.14400
C805        C  0.60496463  0.16481432  0.74357091    -0.12800
C806        C  0.57020821  0.16518147  0.75393881    -0.14400
C807        C  0.60643616  0.42911896  0.92070173    -0.12800
C808        C  0.57159032  0.39452555  0.90933899    -0.14400
C809        C  0.60471460  0.16491512  0.24238389    -0.12800
C810        C  0.56998491  0.16538102  0.25248814    -0.14400
C811        C  0.57162982  0.39374096  0.41054031    -0.12800
C812        C  0.60636413  0.42843034  0.42201121    -0.14400
C813        C  0.42099976  0.20572647  0.60221637    -0.12800
C814        C  0.42100981  0.20670612  0.55878290    -0.14400
C815        C  0.42011844  0.20625768  0.05877127    -0.12800
C816        C  0.41995370  0.20488311  0.10220956    -0.14400
C817        C  0.98340087  0.24538096  0.58775151    -0.12800
C818        C  0.02413820  0.26522062  0.57960026    -0.14400
C819        C  0.27285085  0.24445308  0.41160170    -0.12800
C820        C  0.25245402  0.26467319  0.42000181    -0.14400
C821        C  0.21288096  0.41144591  0.73099209    -0.12800
C822        C  0.21393927  0.41161873  0.77443891    -0.14400
C823        C  0.21283308  0.41151085  0.23098396    -0.12800
C824        C  0.21388480  0.41164799  0.27440759    -0.14400
C825        C  0.98318220  0.24524588  0.08810894    -0.12800
C826        C  0.02395827  0.26528337  0.08008912    -0.14400
C827        C  0.25253491  0.26482941  0.92059128    -0.12800
C828        C  0.27283602  0.24454044  0.91204439    -0.14400
C829        C  0.73442666  0.97617906  0.75490399    -0.12800
C830        C  0.75441217  0.01685660  0.74649301    -0.14400
C831        C  0.73551661  0.74733661  0.91278386    -0.12800
C832        C  0.75584781  0.72697434  0.92087653    -0.14400
C833        C  0.40226182  0.56333965  0.92362462    -0.12800
C834        C  0.43693095  0.59820550  0.91246378    -0.14400
C835        C  0.75413690  0.01699458  0.24723237    -0.12800
C836        C  0.73427306  0.97637272  0.25577728    -0.14400
C837        C  0.73552832  0.74724336  0.41242743    -0.12800
C838        C  0.75581698  0.72681437  0.42030475    -0.14400
C839        C  0.40280610  0.56295890  0.42357634    -0.12800
C840        C  0.43742918  0.59774999  0.41207226    -0.14400
C841        C  0.58745653  0.78736712  0.60481198    -0.12800
C842        C  0.58765927  0.78631088  0.56137972    -0.14400
C843        C  0.58810128  0.78631582  0.06126432    -0.12800
C844        C  0.58810003  0.78752280  0.10469592    -0.14400
C845        C  0.02531128  0.74577797  0.58700055    -0.12800
C846        C  0.98467477  0.72605897  0.57849078    -0.14400
C847        C  0.25382539  0.97481523  0.74599344    -0.12800
C848        C  0.27393029  0.01562881  0.75386520    -0.14400
C849        C  0.40238905  0.82598485  0.74539027    -0.12800
C850        C  0.43727787  0.82589815  0.75571819    -0.14400
C851        C  0.17404143  0.59633959  0.59180922    -0.12800
C852        C  0.17462746  0.56171733  0.58161508    -0.14400
C853        C  0.98473114  0.72547738  0.07844907    -0.12800
C854        C  0.02540368  0.74547912  0.08696120    -0.14400
C855        C  0.25326564  0.97470549  0.24626324    -0.12800
C856        C  0.27330051  0.01546742  0.25416882    -0.14400
C857        C  0.43734685  0.82591248  0.25627215    -0.12800
C858        C  0.40257405  0.82626083  0.24608312    -0.14400
C859        C  0.17461675  0.56198055  0.08171569    -0.12800
C860        C  0.17431403  0.59667748  0.09225938    -0.14400
C861        C  0.21302558  0.78642935  0.89648708    -0.12800
C862        C  0.21190319  0.78538954  0.93990783    -0.14400
C863        C  0.21298773  0.78700527  0.39658703    -0.12800
C864        C  0.21138538  0.78561881  0.44002234    -0.14400
loop_ 
_geom_bond_atom_site_label_1 
_geom_bond_atom_site_label_2 
_geom_bond_distance 
_geom_bond_site_symmetry_2 
_ccdc_geom_bond_type 
Zr1           O2   2.442       .  S
Zr1           O3   2.452       .  S
Zr1           O4   2.445       .  S
Zr1           O7   2.451       .  S
Zr1           O9   2.383       .  S
Zr1          O10   2.382       .  S
Zr1          O11   2.414       .  S
Zr1          O12   2.402       .  S
O2           H58   0.990       .  S
O2           H66   0.991       .  S
O3           C23   1.285   1_554  A
O4           C25   1.284       .  A
O5          Zr15   2.408       .  S
O5           C24   1.279       .  A
O6          Zr14   2.425       .  S
O6           C25   1.281       .  A
O7           C24   1.286       .  A
O8          Zr16   2.409       .  S
O8           C23   1.277   1_554  A
O9          Zr14   2.400       .  S
O9          Zr16   2.382       .  S
O10         Zr15   2.393       .  S
O10         Zr16   2.377       .  S
O10          H45   0.966       .  S
O11         Zr14   2.403       .  S
O11         Zr31   2.384       .  S
O11          H48   0.964       .  S
O12         Zr15   2.386       .  S
O12         Zr31   2.391       .  S
Zr13         O38   2.443       .  S
Zr13         O32   2.458       .  S
Zr13         O40   2.453       .  S
Zr13         O28   2.447       .  S
Zr13         O19   2.402       .  S
Zr13         O20   2.415       .  S
Zr13         O21   2.382       .  S
Zr13         O22   2.382       .  S
Zr14         O33   2.434       .  S
Zr14         O26   2.436       .  S
Zr14         O27   2.422       .  S
Zr14         O20   2.402       .  S
Zr14         O21   2.399       .  S
Zr15         O17   2.435       .  S
Zr15         O39   2.440       .  S
Zr15         O41   2.408       .  S
Zr15         O19   2.385       .  S
Zr15         O22   2.391       .  S
Zr16         O42   2.435       .  S
Zr16         O43   2.435       .  S
Zr16         O18   2.437       .  S
Zr16         O19   2.390       .  S
Zr16         O20   2.384       .  S
O17          H54   0.990       .  S
O18          H49   0.990       .  S
O18          H63   0.990       .  S
O20          H46   0.964       .  S
O21         Zr31   2.383       .  S
O22         Zr31   2.382       .  S
O22          H47   0.966       .  S
C23         C862   1.438       .  S
C24         C860   1.434       .  S
C25         C854   1.431       .  S
O26          H62   0.990       .  S
O27          C29   1.281       .  A
O28          C29   1.284       .  A
C29         C855   1.431       .  S
O30         Zr31   2.440       .  S
O30          H59   0.990       .  S
Zr31         O34   2.438       .  S
Zr31         O35   2.439       .  S
Zr31         O36   2.407       .  S
O32          C37   1.287       .  A
O33          H50   0.990       .  S
O33          H65   0.990       .  S
O34          H51   0.990       .  S
O35          H55   0.990       .  S
O35          H64   0.989       .  S
O36          C37   1.276       .  A
C37         C863   1.439       .  S
O38          H57   0.991       .  S
O38          H61   0.990       .  S
O39          H53   0.990       .  S
O39          H60   0.990       .  S
O40          C44   1.286       .  A
O41          C44   1.279       .  A
O42          H52   0.990       .  S
O43          H56   0.990       .  S
C44         C858   1.435       .  S
Zr67         O68   2.443       .  S
Zr67         O69   2.455       .  S
Zr67         O70   2.445       .  S
Zr67         O73   2.452       .  S
Zr67         O75   2.383       .  S
Zr67         O76   2.383       .  S
Zr67         O77   2.415       .  S
Zr67         O78   2.402       .  S
O68         H124   0.990       .  S
O68         H132   0.991       .  S
O69          C89   1.286       .  A
O70          C91   1.284       .  A
O71         Zr81   2.407       .  S
O71          C90   1.278       .  A
O72         Zr80   2.423       .  S
O72          C91   1.280       .  A
O73          C90   1.286       .  A
O74         Zr82   2.408       .  S
O74          C89   1.277       .  A
O75         Zr80   2.400       .  S
O75         Zr82   2.382       .  S
O76         Zr81   2.394       .  S
O76         Zr82   2.378       .  S
O76         H111   0.966       .  S
O77         Zr80   2.404       .  S
O77         Zr97   2.385       .  S
O77         H114   0.964       .  S
O78         Zr81   2.385       .  S
O78         Zr97   2.391       .  S
Zr79        O104   2.442       .  S
Zr79         O98   2.454       .  S
Zr79        O106   2.454       .  S
Zr79         O94   2.448       .  S
Zr79         O85   2.402       .  S
Zr79         O86   2.413       .  S
Zr79         O87   2.383       .  S
Zr79         O88   2.382       .  S
Zr80         O99   2.436       .  S
Zr80         O92   2.436       .  S
Zr80         O93   2.425       .  S
Zr80         O86   2.402       .  S
Zr80         O87   2.399       .  S
Zr81         O83   2.435       .  S
Zr81        O105   2.439       .  S
Zr81        O107   2.409       .  S
Zr81         O85   2.385       .  S
Zr81         O88   2.391       .  S
Zr82        O108   2.435       .  S
Zr82        O109   2.436       .  S
Zr82         O84   2.437       .  S
Zr82         O85   2.390       .  S
Zr82         O86   2.383       .  S
O83         H120   0.990       .  S
O84         H115   0.990       .  S
O84         H129   0.990       .  S
O86         H112   0.964       .  S
O87         Zr97   2.384       .  S
O88         Zr97   2.382       .  S
O88         H113   0.966       .  S
C89         C864   1.439       .  S
C90         C851   1.434       .  S
C91         C845   1.430       .  S
O92         H128   0.990       .  S
O93          C95   1.281       .  A
O94          C95   1.285       .  A
C95         C847   1.433       .  S
O96         Zr97   2.441       .  S
O96         H125   0.990       .  S
Zr97        O100   2.438       .  S
Zr97        O101   2.440       .  S
Zr97        O102   2.407       .  S
O98         C103   1.286       .  A
O99         H116   0.990       .  S
O99         H131   0.990       .  S
O100        H117   0.990       .  S
O101        H121   0.990       .  S
O101        H130   0.989       .  S
O102        C103   1.277       .  A
C103        C861   1.438       .  S
O104        H123   0.991       .  S
O104        H127   0.990       .  S
O105        H119   0.990       .  S
O105        H126   0.990       .  S
O106        C110   1.286       .  A
O107        C110   1.279       .  A
O108        H118   0.990       .  S
O109        H122   0.990       .  S
C110        C849   1.436       .  S
Zr133       O134   2.442       .  S
Zr133       O135   2.454       .  S
Zr133       O136   2.445       .  S
Zr133       O139   2.450       .  S
Zr133       O141   2.384       .  S
Zr133       O142   2.381       .  S
Zr133       O143   2.413       .  S
Zr133       O144   2.404       .  S
O134        H190   0.990       .  S
O134        H198   0.991       .  S
O135        C155   1.286       .  A
O136        C157   1.284       .  A
O137       Zr147   2.411       .  S
O137        C156   1.279       .  A
O138       Zr146   2.425       .  S
O138        C157   1.281       .  A
O139        C156   1.286       .  A
O140       Zr148   2.408       .  S
O140        C155   1.277       .  A
O141       Zr146   2.403       .  S
O141       Zr148   2.385       .  S
O142       Zr147   2.395       .  S
O142       Zr148   2.375       .  S
O142        H177   0.966       .  S
O143       Zr146   2.401       .  S
O143       Zr163   2.383       .  S
O143        H180   0.964       .  S
O144       Zr147   2.386       .  S
O144       Zr163   2.392       .  S
Zr145       O170   2.442       .  S
Zr145       O164   2.456       .  S
Zr145       O172   2.451       .  S
Zr145       O160   2.444       .  S
Zr145       O151   2.401       .  S
Zr145       O152   2.415       .  S
Zr145       O153   2.382       .  S
Zr145       O154   2.382       .  S
Zr146       O165   2.437       .  S
Zr146       O158   2.435       .  S
Zr146       O159   2.424       .  S
Zr146       O152   2.404       .  S
Zr146       O153   2.398       .  S
Zr147       O149   2.435       .  S
Zr147       O171   2.439       .  S
Zr147       O173   2.412       .  S
Zr147       O151   2.386       .  S
Zr147       O154   2.391       .  S
Zr148       O174   2.435       .  S
Zr148       O175   2.435       .  S
Zr148       O150   2.437       .  S
Zr148       O151   2.388       .  S
Zr148       O152   2.384       .  S
O149        H186   0.990       .  S
O150        H181   0.990       .  S
O150        H195   0.990       .  S
O152        H178   0.964       .  S
O153       Zr163   2.384       .  S
O154       Zr163   2.382       .  S
O154        H179   0.966       .  S
C155        C842   1.438       .  S
C156        C840   1.435       .  S
C157        C837   1.431       .  S
O158        H194   0.990       .  S
O159        C161   1.281       .  A
O160        C161   1.284       .  A
C161        C836   1.431       .  S
O162       Zr163   2.440       .  S
O162        H191   0.990       .  S
Zr163       O166   2.438       .  S
Zr163       O167   2.439       .  S
Zr163       O168   2.408       .  S
O164        C169   1.286       .  A
O165        H182   0.990       .  S
O165        H197   0.990       .  S
O166        H183   0.990       .  S
O167        H187   0.990       .  S
O167        H196   0.989       .  S
O168        C169   1.277       .  A
C169        C844   1.438       .  S
O170        H189   0.991       .  S
O170        H193   0.990       .  S
O171        H185   0.990       .  S
O171        H192   0.990       .  S
O172        C176   1.286       .  A
O173        C176   1.280       .  A
O174        H184   0.990       .  S
O175        H188   0.990       .  S
C176        C857   1.435       .  S
Zr199       O200   2.443       .  S
Zr199       O201   2.453       .  S
Zr199       O202   2.446       .  S
Zr199       O205   2.451       .  S
Zr199       O207   2.384       .  S
Zr199       O208   2.382       .  S
Zr199       O209   2.414       .  S
Zr199       O210   2.403       .  S
O200        H256   0.990       .  S
O200        H264   0.991       .  S
O201        C221   1.286   1_556  A
O202        C223   1.284       .  A
O203       Zr213   2.410       .  S
O203        C222   1.279       .  A
O204       Zr212   2.426       .  S
O204        C223   1.281       .  A
O205        C222   1.286       .  A
O206       Zr214   2.407       .  S
O206        C221   1.277   1_556  A
O207       Zr212   2.402       .  S
O207       Zr214   2.385       .  S
O208       Zr213   2.394       .  S
O208       Zr214   2.376       .  S
O208        H243   0.966       .  S
O209       Zr212   2.403       .  S
O209       Zr229   2.383       .  S
O209        H246   0.964       .  S
O210       Zr213   2.387       .  S
O210       Zr229   2.392       .  S
Zr211       O236   2.442       .  S
Zr211       O230   2.455       .  S
Zr211       O238   2.451       .  S
Zr211       O226   2.445       .  S
Zr211       O217   2.401       .  S
Zr211       O218   2.415       .  S
Zr211       O219   2.382       .  S
Zr211       O220   2.382       .  S
Zr212       O231   2.437       .  S
Zr212       O224   2.435       .  S
Zr212       O225   2.425       .  S
Zr212       O218   2.403       .  S
Zr212       O219   2.398       .  S
Zr213       O215   2.435       .  S
Zr213       O237   2.439       .  S
Zr213       O239   2.411       .  S
Zr213       O217   2.385       .  S
Zr213       O220   2.390       .  S
Zr214       O240   2.435       .  S
Zr214       O241   2.435       .  S
Zr214       O216   2.437       .  S
Zr214       O217   2.388       .  S
Zr214       O218   2.385       .  S
O215        H252   0.990       .  S
O216        H247   0.990       .  S
O216        H261   0.990       .  S
O218        H244   0.964       .  S
O219       Zr229   2.384       .  S
O220       Zr229   2.381       .  S
O220        H245   0.966       .  S
C221        C843   1.438       .  S
C222        C834   1.434       .  S
C223        C831   1.432       .  S
O224        H260   0.990       .  S
O225        C227   1.281       .  A
O226        C227   1.284       .  A
C227        C829   1.432       .  S
O228       Zr229   2.440       .  S
O228        H257   0.990       .  S
Zr229       O232   2.437       .  S
Zr229       O233   2.439       .  S
Zr229       O234   2.407       .  S
O230        C235   1.286       .  A
O231        H248   0.990       .  S
O231        H263   0.990       .  S
O232        H249   0.990       .  S
O233        H253   0.990       .  S
O233        H262   0.989       .  S
O234        C235   1.277       .  A
C235        C841   1.438       .  S
O236        H255   0.991       .  S
O236        H259   0.990       .  S
O237        H251   0.990       .  S
O237        H258   0.990       .  S
O238        C242   1.286       .  A
O239        C242   1.280       .  A
O240        H250   0.990       .  S
O241        H254   0.990       .  S
C242        C850   1.436       .  S
Zr265       O266   2.442       .  S
Zr265       O267   2.453       .  S
Zr265       O268   2.443       .  S
Zr265       O271   2.450       .  S
Zr265       O273   2.383       .  S
Zr265       O274   2.382       .  S
Zr265       O275   2.413   1_556  S
Zr265       O276   2.403   1_556  S
O266        H322   0.990       .  S
O266        H330   0.991       .  S
O267        C287   1.285       .  A
O268        C289   1.284       .  A
O269       Zr279   2.408   1_556  S
O269        C288   1.278       .  A
O270       Zr278   2.424   1_556  S
O270        C289   1.281       .  A
O271        C288   1.286       .  A
O272       Zr280   2.410       .  S
O272        C287   1.277       .  A
O273       Zr278   2.402   1_556  S
O273       Zr280   2.383       .  S
O274       Zr279   2.395   1_556  S
O274       Zr280   2.377       .  S
O274        H309   0.966       .  S
O275       Zr278   2.402       .  S
O275       Zr295   2.384       .  S
O275        H312   0.964       .  S
O276       Zr279   2.386       .  S
O276       Zr295   2.393       .  S
Zr277       O302   2.442       .  S
Zr277       O296   2.455       .  S
Zr277       O304   2.448       .  S
Zr277       O292   2.444       .  S
Zr277       O283   2.402       .  S
Zr277       O284   2.414   1_554  S
Zr277       O285   2.382       .  S
Zr277       O286   2.382       .  S
Zr278       O297   2.437       .  S
Zr278       O290   2.435   1_554  S
Zr278       O291   2.425       .  S
Zr278       O284   2.403   1_554  S
Zr278       O285   2.397       .  S
Zr279       O281   2.436       .  S
Zr279       O303   2.438   1_554  S
Zr279       O305   2.410       .  S
Zr279       O283   2.385       .  S
Zr279       O286   2.389       .  S
Zr280       O306   2.436       .  S
Zr280       O307   2.435       .  S
Zr280       O282   2.437       .  S
Zr280       O283   2.390   1_556  S
Zr280       O284   2.384       .  S
O281        H318   0.990       .  S
O282        H313   0.990       .  S
O282        H327   0.990       .  S
O284        H310   0.964       .  S
O285       Zr295   2.384       .  S
O286       Zr295   2.382       .  S
O286        H311   0.966       .  S
C287        C822   1.439       .  S
C288        C833   1.434       .  S
C289        C827   1.430       .  S
O290        H326   0.990       .  S
O291        C293   1.281       .  A
O292        C293   1.284       .  A
C293        C826   1.432       .  S
O294       Zr295   2.440       .  S
O294        H323   0.990       .  S
Zr295       O298   2.438       .  S
Zr295       O299   2.439       .  S
Zr295       O300   2.408       .  S
O296        C301   1.286       .  A
O297        H314   0.990       .  S
O297        H329   0.990       .  S
O298        H315   0.990       .  S
O299        H319   0.990       .  S
O299        H328   0.989       .  S
O300        C301   1.277       .  A
C301        C823   1.438       .  S
O302        H321   0.991       .  S
O302        H325   0.990       .  S
O303        H317   0.990       .  S
O303        H324   0.990       .  S
O304        C308   1.285       .  A
O305        C308   1.279       .  A
O306        H316   0.990       .  S
O307        H320   0.990       .  S
C308        C859   1.434       .  S
Zr331       O332   2.443       .  S
Zr331       O333   2.452       .  S
Zr331       O334   2.443       .  S
Zr331       O337   2.450       .  S
Zr331       O339   2.383       .  S
Zr331       O340   2.381       .  S
Zr331       O341   2.413       .  S
Zr331       O342   2.403       .  S
O332        H388   0.990       .  S
O332        H396   0.991       .  S
O333        C353   1.285       .  A
O334        C355   1.284       .  A
O335       Zr345   2.412       .  S
O335        C354   1.279       .  A
O336       Zr344   2.424       .  S
O336        C355   1.280       .  A
O337        C354   1.286       .  A
O338       Zr346   2.409       .  S
O338        C353   1.277       .  A
O339       Zr344   2.402       .  S
O339       Zr346   2.383       .  S
O340       Zr345   2.394       .  S
O340       Zr346   2.376       .  S
O340        H375   0.966       .  S
O341       Zr344   2.402       .  S
O341       Zr361   2.385       .  S
O341        H378   0.965       .  S
O342       Zr345   2.386       .  S
O342       Zr361   2.393       .  S
Zr343       O368   2.443       .  S
Zr343       O362   2.454       .  S
Zr343       O370   2.447       .  S
Zr343       O358   2.443       .  S
Zr343       O349   2.401       .  S
Zr343       O350   2.414       .  S
Zr343       O351   2.381       .  S
Zr343       O352   2.382       .  S
Zr344       O363   2.436       .  S
Zr344       O356   2.436       .  S
Zr344       O357   2.424       .  S
Zr344       O350   2.403       .  S
Zr344       O351   2.398       .  S
Zr345       O347   2.435       .  S
Zr345       O369   2.438       .  S
Zr345       O371   2.412       .  S
Zr345       O349   2.385       .  S
Zr345       O352   2.391       .  S
Zr346       O372   2.435       .  S
Zr346       O373   2.436       .  S
Zr346       O348   2.437       .  S
Zr346       O349   2.389       .  S
Zr346       O350   2.384       .  S
O347        H384   0.990       .  S
O348        H379   0.990       .  S
O348        H393   0.990       .  S
O350        H376   0.964       .  S
O351       Zr361   2.383       .  S
O352       Zr361   2.381       .  S
O352        H377   0.966       .  S
C353        C824   1.438       .  S
C354        C839   1.435       .  S
C355        C820   1.430       .  S
O356        H392   0.990       .  S
O357        C359   1.281       .  A
O358        C359   1.284       .  A
C359        C818   1.431       .  S
O360       Zr361   2.439       .  S
O360        H389   0.990       .  S
Zr361       O364   2.438       .  S
Zr361       O365   2.439       .  S
Zr361       O366   2.410       .  S
O362        C367   1.286       .  A
O363        H380   0.990       .  S
O363        H395   0.990       .  S
O364        H381   0.990       .  S
O365        H385   0.990       .  S
O365        H394   0.989       .  S
O366        C367   1.277       .  A
C367        C821   1.439       .  S
O368        H387   0.991       .  S
O368        H391   0.990       .  S
O369        H383   0.990       .  S
O369        H390   0.990       .  S
O370        C374   1.285       .  A
O371        C374   1.280       .  A
O372        H382   0.990       .  S
O373        H386   0.990       .  S
C374        C852   1.434       .  S
Zr397       O398   2.442       .  S
Zr397       O399   2.452       .  S
Zr397       O400   2.447       .  S
Zr397       O403   2.448       .  S
Zr397       O405   2.383       .  S
Zr397       O406   2.382       .  S
Zr397       O407   2.412       .  S
Zr397       O408   2.405       .  S
O398        H454   0.990       .  S
O398        H462   0.991       .  S
O399        C419   1.285       .  A
O400        C421   1.284       .  A
O401       Zr411   2.412       .  S
O401        C420   1.279       .  A
O402       Zr410   2.422       .  S
O402        C421   1.280       .  A
O403        C420   1.285       .  A
O404       Zr412   2.410       .  S
O404        C419   1.277       .  A
O405       Zr410   2.402       .  S
O405       Zr412   2.383       .  S
O406       Zr411   2.395       .  S
O406       Zr412   2.375       .  S
O406        H441   0.966       .  S
O407       Zr410   2.401       .  S
O407       Zr427   2.382       .  S
O407        H444   0.964       .  S
O408       Zr411   2.387       .  S
O408       Zr427   2.392       .  S
Zr409       O434   2.442       .  S
Zr409       O428   2.458       .  S
Zr409       O436   2.450       .  S
Zr409       O424   2.446       .  S
Zr409       O415   2.403       .  S
Zr409       O416   2.415       .  S
Zr409       O417   2.381       .  S
Zr409       O418   2.383       .  S
Zr410       O429   2.436       .  S
Zr410       O422   2.436       .  S
Zr410       O423   2.422       .  S
Zr410       O416   2.403       .  S
Zr410       O417   2.398       .  S
Zr411       O413   2.436       .  S
Zr411       O435   2.439       .  S
Zr411       O437   2.412       .  S
Zr411       O415   2.386       .  S
Zr411       O418   2.390       .  S
Zr412       O438   2.435       .  S
Zr412       O439   2.435       .  S
Zr412       O414   2.437       .  S
Zr412       O415   2.389       .  S
Zr412       O416   2.385       .  S
O413        H450   0.990       .  S
O414        H445   0.990       .  S
O414        H459   0.990       .  S
O416        H442   0.964       .  S
O417       Zr427   2.385       .  S
O418       Zr427   2.382       .  S
O418        H443   0.966       .  S
C419        C814   1.438       .  S
C420        C811   1.435       .  S
C421        C819   1.430       .  S
O422        H458   0.990       .  S
O423        C425   1.281       .  A
O424        C425   1.284       .  A
C425        C856   1.431       .  S
O426       Zr427   2.440       .  S
O426        H455   0.990       .  S
Zr427       O430   2.438       .  S
Zr427       O431   2.439       .  S
Zr427       O432   2.406       .  S
O428        C433   1.287       .  A
O429        H446   0.990       .  S
O429        H461   0.990       .  S
O430        H447   0.990       .  S
O431        H451   0.990       .  S
O431        H460   0.989       .  S
O432        C433   1.277       .  A
C433        C816   1.439       .  S
O434        H453   0.991       .  S
O434        H457   0.990       .  S
O435        H449   0.990       .  S
O435        H456   0.990       .  S
O436        C440   1.285       .  A
O437        C440   1.280       .  A
O438        H448   0.990       .  S
O439        H452   0.990       .  S
C440        C810   1.435       .  S
Zr463       O464   2.443       .  S
Zr463       O465   2.454       .  S
Zr463       O466   2.445       .  S
Zr463       O469   2.450       .  S
Zr463       O471   2.383       .  S
Zr463       O472   2.383       .  S
Zr463       O473   2.413       .  S
Zr463       O474   2.404       .  S
O464        H520   0.990       .  S
O464        H528   0.991       .  S
O465        C485   1.286   1_556  A
O466        C487   1.284       .  A
O467       Zr477   2.409       .  S
O467        C486   1.279       .  A
O468       Zr476   2.424       .  S
O468        C487   1.280       .  A
O469        C486   1.286       .  A
O470       Zr478   2.408       .  S
O470        C485   1.277   1_556  A
O471       Zr476   2.402       .  S
O471       Zr478   2.382       .  S
O472       Zr477   2.395       .  S
O472       Zr478   2.377       .  S
O472        H507   0.966       .  S
O473       Zr476   2.403       .  S
O473       Zr493   2.383       .  S
O473        H510   0.964       .  S
O474       Zr477   2.387       .  S
O474       Zr493   2.392       .  S
Zr475       O500   2.442       .  S
Zr475       O494   2.456       .  S
Zr475       O502   2.452       .  S
Zr475       O490   2.446       .  S
Zr475       O481   2.402       .  S
Zr475       O482   2.415       .  S
Zr475       O483   2.382       .  S
Zr475       O484   2.383       .  S
Zr476       O495   2.436       .  S
Zr476       O488   2.435       .  S
Zr476       O489   2.426       .  S
Zr476       O482   2.403       .  S
Zr476       O483   2.398       .  S
Zr477       O479   2.436       .  S
Zr477       O501   2.439       .  S
Zr477       O503   2.413       .  S
Zr477       O481   2.385       .  S
Zr477       O484   2.390       .  S
Zr478       O504   2.435       .  S
Zr478       O505   2.435       .  S
Zr478       O480   2.437       .  S
Zr478       O481   2.390       .  S
Zr478       O482   2.384       .  S
O479        H516   0.990       .  S
O480        H511   0.990       .  S
O480        H525   0.990       .  S
O482        H508   0.964       .  S
O483       Zr493   2.384       .  S
O484       Zr493   2.384       .  S
O484        H509   0.966       .  S
C485        C815   1.439       .  S
C486        C808   1.434       .  S
C487        C828   1.430       .  S
O488        H524   0.990       .  S
O489        C491   1.281       .  A
O490        C491   1.284       .  A
C491        C848   1.433       .  S
O492       Zr493   2.441       .  S
O492        H521   0.990       .  S
Zr493       O496   2.438       .  S
Zr493       O497   2.439       .  S
Zr493       O498   2.407       .  S
O494        C499   1.286       .  A
O495        H512   0.990       .  S
O495        H527   0.990       .  S
O496        H513   0.990       .  S
O497        H517   0.990       .  S
O497        H526   0.989       .  S
O498        C499   1.277       .  A
C499        C813   1.438       .  S
O500        H519   0.991       .  S
O500        H523   0.990       .  S
O501        H515   0.990       .  S
O501        H522   0.990       .  S
O502        C506   1.286       .  A
O503        C506   1.280       .  A
O504        H514   0.990       .  S
O505        H518   0.990       .  S
C506        C806   1.436       .  S
Zr529       O530   2.442       .  S
Zr529       O531   2.456       .  S
Zr529       O532   2.444       .  S
Zr529       O535   2.453       .  S
Zr529       O537   2.382       .  S
Zr529       O538   2.382       .  S
Zr529       O539   2.415       .  S
Zr529       O540   2.402       .  S
O530        H586   0.990       .  S
O530        H594   0.991       .  S
O531        C551   1.286       .  A
O532        C553   1.284       .  A
O533       Zr543   2.408       .  S
O533        C552   1.279       .  A
O534       Zr542   2.425       .  S
O534        C553   1.280       .  A
O535        C552   1.286       .  A
O536       Zr544   2.406       .  S
O536        C551   1.276       .  A
O537       Zr542   2.400       .  S
O537       Zr544   2.383       .  S
O538       Zr543   2.393       .  S
O538       Zr544   2.378       .  S
O538        H573   0.965       .  S
O539       Zr542   2.404       .  S
O539       Zr559   2.385       .  S
O539        H576   0.964       .  S
O540       Zr543   2.384       .  S
O540       Zr559   2.390       .  S
Zr541       O566   2.442       .  S
Zr541       O560   2.455       .  S
Zr541       O568   2.451       .  S
Zr541       O556   2.447       .  S
Zr541       O547   2.402       .  S
Zr541       O548   2.413       .  S
Zr541       O549   2.381       .  S
Zr541       O550   2.381       .  S
Zr542       O561   2.436       .  S
Zr542       O554   2.435       .  S
Zr542       O555   2.423       .  S
Zr542       O548   2.402       .  S
Zr542       O549   2.399       .  S
Zr543       O545   2.435       .  S
Zr543       O567   2.439       .  S
Zr543       O569   2.407       .  S
Zr543       O547   2.386       .  S
Zr543       O550   2.390       .  S
Zr544       O570   2.435       .  S
Zr544       O571   2.435       .  S
Zr544       O546   2.437       .  S
Zr544       O547   2.390       .  S
Zr544       O548   2.383       .  S
O545        H582   0.990       .  S
O546        H577   0.990       .  S
O546        H591   0.990       .  S
O548        H574   0.964       .  S
O549       Zr559   2.382       .  S
O550       Zr559   2.381       .  S
O550        H575   0.966       .  S
C551        C804   1.438       .  S
C552        C809   1.434       .  S
C553        C835   1.431       .  S
O554        H590   0.990       .  S
O555        C557   1.281       .  A
O556        C557   1.284       .  A
C557        C825   1.432       .  S
O558       Zr559   2.440       .  S
O558        H587   0.990       .  S
Zr559       O562   2.437       .  S
Zr559       O563   2.440       .  S
Zr559       O564   2.407       .  S
O560        C565   1.286   1_554  A
O561        H578   0.990       .  S
O561        H593   0.990       .  S
O562        H579   0.990       .  S
O563        H583   0.990       .  S
O563        H592   0.989       .  S
O564        C565   1.277   1_554  A
C565        C802   1.438       .  S
O566        H585   0.991       .  S
O566        H589   0.990       .  S
O567        H581   0.990       .  S
O567        H588   0.990       .  S
O568        C572   1.286       .  A
O569        C572   1.279       .  A
O570        H580   0.990       .  S
O571        H584   0.990       .  S
C572        C799   1.433       .  S
Zr595       O596   2.442       .  S
Zr595       O597   2.454       .  S
Zr595       O598   2.447       .  S
Zr595       O601   2.453       .  S
Zr595       O603   2.383       .  S
Zr595       O604   2.383       .  S
Zr595       O605   2.414       .  S
Zr595       O606   2.402       .  S
O596        H652   0.990       .  S
O596        H660   0.991       .  S
O597        C617   1.286       .  A
O598        C619   1.284       .  A
O599       Zr609   2.410       .  S
O599        C618   1.279       .  A
O600       Zr608   2.423       .  S
O600        C619   1.280       .  A
O601        C618   1.286       .  A
O602       Zr610   2.407       .  S
O602        C617   1.276       .  A
O603       Zr608   2.401       .  S
O603       Zr610   2.383       .  S
O604       Zr609   2.394       .  S
O604       Zr610   2.377       .  S
O604        H639   0.966       .  S
O605       Zr608   2.403       .  S
O605       Zr625   2.385       .  S
O605        H642   0.964       .  S
O606       Zr609   2.386       .  S
O606       Zr625   2.392       .  S
Zr607       O632   2.442       .  S
Zr607       O626   2.455       .  S
Zr607       O634   2.453       .  S
Zr607       O622   2.447       .  S
Zr607       O613   2.402       .  S
Zr607       O614   2.415       .  S
Zr607       O615   2.382       .  S
Zr607       O616   2.383       .  S
Zr608       O627   2.436       .  S
Zr608       O620   2.436       .  S
Zr608       O621   2.423       .  S
Zr608       O614   2.403       .  S
Zr608       O615   2.399       .  S
Zr609       O611   2.435       .  S
Zr609       O633   2.439       .  S
Zr609       O635   2.410       .  S
Zr609       O613   2.386       .  S
Zr609       O616   2.391       .  S
Zr610       O636   2.436       .  S
Zr610       O637   2.436       .  S
Zr610       O612   2.437       .  S
Zr610       O613   2.390       .  S
Zr610       O614   2.384       .  S
O611        H648   0.990       .  S
O612        H643   0.990       .  S
O612        H657   0.990       .  S
O614        H640   0.964       .  S
O615       Zr625   2.383       .  S
O616       Zr625   2.383       .  S
O616        H641   0.966       .  S
C617        C803   1.438       .  S
C618        C798   1.436       .  S
C619        C817   1.431       .  S
O620        H656   0.990       .  S
O621        C623   1.281       .  A
O622        C623   1.284       .  A
C623        C830   1.432       .  S
O624       Zr625   2.440       .  S
O624        H653   0.990       .  S
Zr625       O628   2.437       .  S
Zr625       O629   2.440       .  S
Zr625       O630   2.408       .  S
O626        C631   1.286       .  A
O627        H644   0.990       .  S
O627        H659   0.990       .  S
O628        H645   0.990       .  S
O629        H649   0.990       .  S
O629        H658   0.989       .  S
O630        C631   1.277       .  A
C631        C801   1.439       .  S
O632        H651   0.991       .  S
O632        H655   0.990       .  S
O633        H647   0.990       .  S
O633        H654   0.990       .  S
O634        C638   1.286       .  A
O635        C638   1.279       .  A
O636        H646   0.990       .  S
O637        H650   0.990       .  S
C638        C805   1.436       .  S
Zr661       O662   2.442       .  S
Zr661       O663   2.453       .  S
Zr661       O664   2.445       .  S
Zr661       O667   2.448       .  S
Zr661       O669   2.382       .  S
Zr661       O670   2.382       .  S
Zr661       O671   2.413   1_556  S
Zr661       O672   2.403   1_556  S
O662        H718   0.990       .  S
O662        H726   0.991       .  S
O663        C683   1.286       .  A
O664        C685   1.284       .  A
O665       Zr675   2.411   1_556  S
O665        C684   1.279       .  A
O666       Zr674   2.427   1_556  S
O666        C685   1.281       .  A
O667        C684   1.285       .  A
O668       Zr676   2.407       .  S
O668        C683   1.276       .  A
O669       Zr674   2.401   1_556  S
O669       Zr676   2.385       .  S
O670       Zr675   2.394   1_556  S
O670       Zr676   2.376       .  S
O670        H705   0.966       .  S
O671       Zr674   2.402       .  S
O671       Zr691   2.385       .  S
O671        H708   0.964       .  S
O672       Zr675   2.385       .  S
O672       Zr691   2.391       .  S
Zr673       O698   2.442       .  S
Zr673       O692   2.456       .  S
Zr673       O700   2.448       .  S
Zr673       O688   2.445       .  S
Zr673       O679   2.401   1_554  S
Zr673       O680   2.413   1_554  S
Zr673       O681   2.381       .  S
Zr673       O682   2.382       .  S
Zr674       O693   2.437       .  S
Zr674       O686   2.435   1_554  S
Zr674       O687   2.424       .  S
Zr674       O680   2.404   1_554  S
Zr674       O681   2.399       .  S
Zr675       O677   2.436       .  S
Zr675       O699   2.438   1_554  S
Zr675       O701   2.412       .  S
Zr675       O679   2.385   1_554  S
Zr675       O682   2.390       .  S
Zr676       O702   2.436       .  S
Zr676       O703   2.436       .  S
Zr676       O678   2.437       .  S
Zr676       O679   2.388       .  S
Zr676       O680   2.385       .  S
O677        H714   0.990       .  S
O678        H709   0.990       .  S
O678        H723   0.990       .  S
O680        H706   0.964       .  S
O681       Zr691   2.384       .  S
O682       Zr691   2.381       .  S
O682        H707   0.966       .  S
C683        C793   1.438       .  S
C684        C807   1.434       .  S
C685        C832   1.432       .  S
O686        H722   0.990       .  S
O687        C689   1.281       .  A
O688        C689   1.284       .  A
C689        C853   1.432       .  S
O690       Zr691   2.440       .  S
O690        H719   0.990       .  S
Zr691       O694   2.437       .  S
Zr691       O695   2.440       .  S
Zr691       O696   2.408       .  S
O692        C697   1.286       .  A
O693        H710   0.990       .  S
O693        H725   0.990       .  S
O694        H711   0.990       .  S
O695        H715   0.990       .  S
O695        H724   0.989       .  S
O696        C697   1.277       .  A
C697        C795   1.439       .  S
O698        H717   0.991       .  S
O698        H721   0.990       .  S
O699        H713   0.990       .  S
O699        H720   0.990       .  S
O700        C704   1.285       .  A
O701        C704   1.280       .  A
O702        H712   0.990       .  S
O703        H716   0.990       .  S
C704        C800   1.434       .  S
Zr727       O728   2.442       .  S
Zr727       O729   2.454       .  S
Zr727       O730   2.446       .  S
Zr727       O733   2.451       .  S
Zr727       O735   2.383       .  S
Zr727       O736   2.381       .  S
Zr727       O737   2.413       .  S
Zr727       O738   2.403       .  S
O728        H784   0.990       .  S
O728        H792   0.991       .  S
O729        C749   1.286       .  A
O730        C751   1.284       .  A
O731       Zr741   2.410       .  S
O731        C750   1.279       .  A
O732       Zr740   2.425       .  S
O732        C751   1.281       .  A
O733        C750   1.286       .  A
O734       Zr742   2.408       .  S
O734        C749   1.277       .  A
O735       Zr740   2.402       .  S
O735       Zr742   2.383       .  S
O736       Zr741   2.395       .  S
O736       Zr742   2.376       .  S
O736        H771   0.966       .  S
O737       Zr740   2.403       .  S
O737       Zr757   2.384       .  S
O737        H774   0.964       .  S
O738       Zr741   2.385       .  S
O738       Zr757   2.391       .  S
Zr739       O764   2.442       .  S
Zr739       O758   2.454       .  S
Zr739       O766   2.450       .  S
Zr739       O754   2.442       .  S
Zr739       O745   2.400       .  S
Zr739       O746   2.414       .  S
Zr739       O747   2.382       .  S
Zr739       O748   2.381       .  S
Zr740       O759   2.436       .  S
Zr740       O752   2.436       .  S
Zr740       O753   2.424       .  S
Zr740       O746   2.403       .  S
Zr740       O747   2.398       .  S
Zr741       O743   2.436       .  S
Zr741       O765   2.437       .  S
Zr741       O767   2.413       .  S
Zr741       O745   2.385       .  S
Zr741       O748   2.389       .  S
Zr742       O768   2.435       .  S
Zr742       O769   2.435       .  S
Zr742       O744   2.437       .  S
Zr742       O745   2.390       .  S
Zr742       O746   2.384       .  S
O743        H780   0.990       .  S
O744        H775   0.990       .  S
O744        H789   0.990       .  S
O746        H772   0.964       .  S
O747       Zr757   2.384       .  S
O748       Zr757   2.381       .  S
O748        H773   0.966       .  S
C749        C796   1.439       .  S
C750        C812   1.435       .  S
C751        C838   1.431       .  S
O752        H788   0.990       .  S
O753        C755   1.281       .  A
O754        C755   1.284       .  A
C755        C846   1.430       .  S
O756       Zr757   2.439       .  S
O756        H785   0.990       .  S
Zr757       O760   2.437       .  S
Zr757       O761   2.440       .  S
Zr757       O762   2.407       .  S
O758        C763   1.286       .  A
O759        H776   0.990       .  S
O759        H791   0.990       .  S
O760        H777   0.990       .  S
O761        H781   0.990       .  S
O761        H790   0.989       .  S
O762        C763   1.277       .  A
C763        C794   1.437       .  S
O764        H783   0.991       .  S
O764        H787   0.990       .  S
O765        H779   0.990       .  S
O765        H786   0.990       .  S
O766        C770   1.286       .  A
O767        C770   1.280       .  A
O768        H778   0.990       .  S
O769        H782   0.990       .  S
C770        C797   1.436       .  S
C793        C794   1.208       .  T
C795        C796   1.208       .  T
C797        C798   1.207       .  T
C799        C800   1.205       .  T
C801        C802   1.208       .  T
C803        C804   1.208       .  T
C805        C806   1.207       .  T
C807        C808   1.205       .  T
C809        C810   1.206       .  T
C811        C812   1.206       .  T
C813        C814   1.208       .  T
C815        C816   1.208       .  T
C817        C818   1.204   1_655  T
C819        C820   1.203       .  T
C821        C822   1.208       .  T
C823        C824   1.208       .  T
C825        C826   1.204   1_655  T
C827        C828   1.203       .  T
C829        C830   1.204   1_565  T
C831        C832   1.204       .  T
C833        C834   1.205       .  T
C835        C836   1.203   1_545  T
C837        C838   1.204       .  T
C839        C840   1.206       .  T
C841        C842   1.208       .  T
C843        C844   1.208       .  T
C845        C846   1.203   1_455  T
C847        C848   1.205   1_565  T
C849        C850   1.207       .  T
C851        C852   1.205       .  T
C853        C854   1.204   1_655  T
C855        C856   1.204   1_565  T
C857        C858   1.206       .  T
C859        C860   1.205       .  T
C861        C862   1.208       .  T
C863        C864   1.209       .  T
