geometry optimzed in LAMMPS
_audit_creation_date              2020-12-01 
_audit_creation_method            'lammps2cif' 
_symmetry_space_group_name_H-M    'P1' 
_symmetry_Int_Tables_number       1 
_symmetry_cell_setting            triclinic 
loop_ 
_symmetry_equiv_pos_as_xyz 
  x,y,z 
_cell_length_a                    34.16274827 
_cell_length_b                    40.13487780041971 
_cell_length_c                    46.670514710352066 
_cell_angle_alpha                 90.03251593884472 
_cell_angle_beta                  89.59595700340606 
_cell_angle_gamma                 90.08047699404291 
loop_ 
_atom_site_label 
_atom_site_type_symbol 
_atom_site_fract_x 
_atom_site_fract_y 
_atom_site_fract_z 
_atom_site_charge 
N1          N  0.03969135  0.99881507  0.75461306    -0.03100
C2          C  0.06828160  0.98496792  0.73816782    -0.00500
C3          C  0.10410114  0.98891575  0.75141409    -0.23400
C4          C  0.09719841  0.00556469  0.77670435    -0.23600
C5          C  0.05742359  0.01141589  0.77817697    -0.00600
H6          H  0.13225119  0.98029195  0.74366251     0.13200
H7          H  0.11900320  0.01336321  0.79203400     0.13200
N8          N  0.99934049  0.99964786  0.74846433    -0.03100
C9          C  0.48281238  0.00966543  0.72361646    -0.00500
C10         C  0.44283418  0.00421284  0.72470207    -0.23400
C11         C  0.43465626  0.99060546  0.75111330    -0.23600
C12         C  0.46990675  0.98793319  0.76527839    -0.00600
H13         H  0.42169614  0.01045402  0.70840031     0.13200
H14         H  0.40611695  0.98308800  0.75900907     0.13200
O15         O  0.21722491  0.73049230  0.47467251    -0.74000
O16         O  0.18628541  0.79017026  0.53476280    -0.74100
O17         O  0.21538092  0.72733748  0.53257050    -0.74100
O18         O  0.18794917  0.79325649  0.47680933    -0.74200
O19         O  0.12703996  0.77341338  0.47560943    -0.74100
O20         O  0.15471718  0.70702971  0.53074862    -0.74100
O21         O  0.12550261  0.77008167  0.53361677    -0.74100
O22         O  0.15621222  0.71089926  0.47272280    -0.74100
Ni23       Ni  0.20383382  0.76104389  0.50479034     1.25400
Ni24       Ni  0.13871293  0.73960012  0.50318289     1.25400
C25         C  0.19171277  0.71105970  0.46356393     0.88100
C26         C  0.15086282  0.79026512  0.54401308     0.88100
C27         C  0.18964633  0.70597255  0.54058458     0.88100
C28         C  0.15300961  0.79421575  0.46695442     0.88300
N29         N  0.27017024  0.49368089  0.74979296    -0.03100
C30         C  0.24792648  0.50417307  0.72760282    -0.00500
C31         C  0.20873905  0.49927290  0.73385800    -0.23400
C32         C  0.20685179  0.48569652  0.76083585    -0.23600
C33         C  0.24494860  0.48241372  0.77020300    -0.00600
H34         H  0.18407313  0.50604482  0.72065793     0.13200
H35         H  0.18048148  0.47855443  0.77228093     0.13200
N36         N  0.31138696  0.49516930  0.75148960    -0.03100
C37         C  0.33261795  0.50801672  0.77334823    -0.00500
C38         C  0.37205045  0.50673786  0.76669927    -0.23400
C39         C  0.37515812  0.49295432  0.73982994    -0.23600
C40         C  0.33751898  0.48595461  0.73086843    -0.00600
H41         H  0.39596980  0.51553715  0.77978742     0.13200
H42         H  0.40210005  0.48807379  0.72823550     0.13200
O43         O  0.34021971  0.73475129  0.97206939    -0.74000
O44         O  0.37773817  0.79453439  0.03021079    -0.74100
O45         O  0.37637989  0.79527210  0.97199865    -0.74100
O46         O  0.34127687  0.73402347  0.03017407    -0.74200
O47         O  0.39988784  0.70979026  0.02937828    -0.74100
O48         O  0.43415735  0.76965997  0.97044528    -0.74100
O49         O  0.43633051  0.77033337  0.02852058    -0.74100
O50         O  0.39815021  0.70936548  0.97157878    -0.74100
Ni51       Ni  0.35685206  0.76559561  0.00118284     1.25400
Ni52       Ni  0.41916877  0.73894836  0.99997564     1.25400
C53         C  0.36293479  0.71181564  0.96247979     0.88100
C54         C  0.41329355  0.79259948  0.03879280     0.88100
C55         C  0.41100798  0.79241416  0.96147017     0.88100
C56         C  0.36469268  0.71136055  0.03902047     0.88300
N57         N  0.25946479  0.49560615  0.25509254    -0.03100
C58         C  0.23051535  0.48046756  0.24021590    -0.00500
C59         C  0.19544582  0.48350374  0.25499190    -0.23400
C60         C  0.20321633  0.50128043  0.27950897    -0.23600
C61         C  0.24275893  0.50849505  0.27902745    -0.00600
H62         H  0.16709535  0.47432886  0.24839470     0.13200
H63         H  0.18192518  0.50966319  0.29520226     0.13200
N64         N  0.29915269  0.49818889  0.24691307    -0.03100
C65         C  0.31330552  0.51186352  0.22240393    -0.00500
C66         C  0.35353835  0.50882646  0.22140854    -0.23400
C67         C  0.36441263  0.49278337  0.24610029    -0.23600
C68         C  0.33045240  0.48634136  0.26148633    -0.00600
H69         H  0.37302164  0.51831647  0.20493524     0.13200
H70         H  0.39398629  0.48624361  0.25204199     0.13200
O71         O  0.48494631  0.23454189  0.52842386    -0.74000
O72         O  0.46044737  0.29778842  0.46890830    -0.74100
O73         O  0.45546457  0.29785593  0.52689581    -0.74100
O74         O  0.49039424  0.23502536  0.47036570    -0.74200
O75         O  0.43021790  0.21377172  0.46816119    -0.70100
O76         O  0.39477754  0.27786914  0.52396945    -0.74100
O77         O  0.40033311  0.27649755  0.46625050    -0.74100
O78         O  0.42407243  0.21490429  0.52586430    -0.74100
Ni79       Ni  0.47498697  0.26704571  0.49879116     1.25400
Ni80       Ni  0.41026868  0.24502597  0.49599601     1.25400
C81         C  0.45840650  0.21388691  0.53664320     0.88100
C82         C  0.42609109  0.29761008  0.45788861     0.88100
C83         C  0.41928062  0.29883269  0.53434594     0.88100
C84         C  0.46620062  0.21384740  0.46002862     0.88300
O85         O  0.08161119  0.23537634  0.02941509    -0.74000
O86         O  0.11757589  0.29677205  0.97164818    -0.74100
O87         O  0.08349009  0.23516383  0.97129686    -0.74100
O88         O  0.11486691  0.29655348  0.02965021    -0.74200
O89         O  0.17407560  0.27341776  0.03093690    -0.74100
O90         O  0.14304383  0.21256744  0.97158993    -0.74100
O91         O  0.17690212  0.27389797  0.97292623    -0.74100
O92         O  0.14070627  0.21194942  0.02974274    -0.74100
Ni93       Ni  0.09729571  0.26678109  0.00040637     1.25400
Ni94       Ni  0.16075132  0.24208658  0.00131489     1.25400
C95         C  0.10541434  0.21353274  0.03916140     0.88100
C96         C  0.15339568  0.29588916  0.96311897     0.88100
C97         C  0.10805106  0.21367078  0.96180413     0.88100
C98         C  0.14944661  0.29515549  0.04002397     0.88300
N99         N  0.06250988  0.99589321  0.24992606    -0.03100
C100        C  0.08483740  0.00879034  0.22855165    -0.00500
C101        C  0.12400609  0.00629838  0.23539712    -0.23400
C102        C  0.12569853  0.99164099  0.26198664    -0.23600
C103        C  0.08750897  0.98536967  0.27042822    -0.00600
H104        H  0.14865185  0.01480877  0.22265776     0.13200
H105        H  0.15201174  0.98549537  0.27362581     0.13200
N106        N  0.02124936  0.99498743  0.25111128    -0.03100
C107        C  0.49821456  0.00617425  0.27289327    -0.00500
C108        C  0.45925789  0.00169030  0.26609709    -0.23400
C109        C  0.45835622  0.98760323  0.23928123    -0.23600
C110        C  0.49680524  0.98359383  0.23045689    -0.00600
H111        H  0.43412093  0.00846955  0.27907677     0.13200
H112        H  0.43235769  0.98033527  0.22770658     0.13200
C113        C  0.09230276  0.18983002  0.06163747    -0.02800
C114        C  0.05841492  0.19595323  0.07810387    -0.05400
C115        C  0.04704527  0.17385430  0.09989576    -0.20500
C116        C  0.06875700  0.14485361  0.10518169     0.25200
C117        C  0.10264620  0.13879628  0.08869165    -0.18100
C118        C  0.11429072  0.16104565  0.06725804    -0.08000
C119        C  0.05752898  0.12254960  0.12933706    -0.18300
C120        C  0.06469301  0.08951777  0.12873121    -0.23100
C121        C  0.06222471  0.06689261  0.15400537     0.27300
C122        C  0.08055600  0.03568328  0.15176360    -0.19900
C123        C  0.08535057  0.01561602  0.17586612    -0.09500
C124        C  0.07105194  0.02591851  0.20261706    -0.10100
C125        C  0.04980705  0.05568388  0.20467954    -0.03000
C126        C  0.04549322  0.07617207  0.18056778    -0.18100
H127        H  0.04110596  0.21812478  0.07449789     0.11000
H128        H  0.02123222  0.17937870  0.11263922     0.11100
H129        H  0.12094408  0.11736845  0.09285398     0.10700
H130        H  0.14068670  0.15572181  0.05511906     0.11800
H131        H  0.04458461  0.13410680  0.14811639     0.11900
H132        H  0.07620187  0.07879763  0.10902461     0.13800
H133        H  0.09336045  0.02763254  0.13162253     0.10300
H134        H  0.10187699  0.99269043  0.17392314     0.12400
H135        H  0.03876876  0.06408873  0.22524563     0.09000
H136        H  0.03029801  0.09956288  0.18322263     0.11800
C137        C  0.48012379  0.18922700  0.43846354    -0.02800
C138        C  0.51695128  0.19297583  0.42511974    -0.05400
C139        C  0.52977764  0.17015362  0.40436504    -0.20500
C140        C  0.50654661  0.14266275  0.39696205     0.25200
C141        C  0.46980855  0.13875832  0.41042536    -0.18100
C142        C  0.45672364  0.16182707  0.43085775    -0.08000
C143        C  0.51966809  0.11985726  0.37362143    -0.18300
C144        C  0.51064074  0.08714329  0.37357071    -0.23100
C145        C  0.51562139  0.06421806  0.34858374     0.27300
C146        C  0.49625157  0.03337786  0.34980557    -0.19900
C147        C  0.49344231  0.01326262  0.32552904    -0.09500
C148        C  0.51061734  0.02310350  0.29950988    -0.10100
C149        C  0.03308933  0.05238444  0.29868441    -0.03000
C150        C  0.53553928  0.07291530  0.32302492    -0.18100
H151        H  0.53565140  0.21388109  0.43037976     0.11000
H152        H  0.05793909  0.17395948  0.39405597     0.11100
H153        H  0.45059179  0.11842576  0.40458668     0.10700
H154        H  0.42818788  0.15824360  0.44063875     0.11800
H155        H  0.53598310  0.13079170  0.35599255     0.11900
H156        H  0.49573265  0.07704164  0.39229527     0.13800
H157        H  0.48104634  0.02570255  0.36915795     0.10300
H158        H  0.47600080  0.99072464  0.32665211     0.12400
H159        H  0.04646658  0.06051120  0.27878311     0.09000
H160        H  0.05165189  0.09599812  0.32121029     0.11800
C161        C  0.33029303  0.46756450  0.28884245    -0.02800
C162        C  0.30410172  0.44120569  0.29392747    -0.05400
C163        C  0.30954868  0.41991239  0.31743090    -0.20500
C164        C  0.34141882  0.42440964  0.33600146     0.25200
C165        C  0.36597186  0.45214156  0.33183740    -0.18100
C166        C  0.36055270  0.47328144  0.30847755    -0.08000
C167        C  0.34858612  0.39976314  0.35928444    -0.18300
C168        C  0.38473088  0.39346241  0.36966372    -0.23100
C169        C  0.39406146  0.36865411  0.39250472     0.27300
C170        C  0.43299298  0.36631732  0.40199970    -0.19900
C171        C  0.44355719  0.34344094  0.42324021    -0.09500
C172        C  0.41542374  0.32210437  0.43541471    -0.10100
C173        C  0.37648208  0.32441312  0.42600060    -0.03000
C174        C  0.36587698  0.34734558  0.40487861    -0.18100
H175        H  0.28076797  0.43598344  0.27902032     0.11000
H176        H  0.28981189  0.39903426  0.32040757     0.11100
H177        H  0.38970500  0.45745989  0.34636591     0.10700
H178        H  0.38081631  0.49375255  0.30528754     0.11800
H179        H  0.32350232  0.38571810  0.36685248     0.11900
H180        H  0.40947651  0.40686111  0.36057466     0.13800
H181        H  0.45543687  0.38232555  0.39294845     0.10300
H182        H  0.47378939  0.34236623  0.43000233     0.12400
H183        H  0.35397231  0.30846961  0.43502539     0.09000
H184        H  0.33559947  0.34789237  0.39844462     0.11800
C185        C  0.16066149  0.31908679  0.06275630    -0.02800
C186        C  0.13193121  0.33901206  0.07587720    -0.05400
C187        C  0.14197514  0.36183512  0.09714429    -0.20500
C188        C  0.18099649  0.36561931  0.10584748     0.25200
C189        C  0.20994489  0.34566306  0.09273101    -0.18100
C190        C  0.19978212  0.32256226  0.07146072    -0.08000
C191        C  0.18919864  0.39051224  0.12875568    -0.18300
C192        C  0.22480863  0.39819811  0.13928881    -0.23100
C193        C  0.22961307  0.42257434  0.16309943     0.27300
C194        C  0.26022286  0.41854917  0.18279205    -0.19900
C195        C  0.26241508  0.43881510  0.20725493    -0.09500
C196        C  0.23402829  0.46341969  0.21222719    -0.10100
C197        C  0.20519978  0.46897259  0.19152284    -0.03000
C198        C  0.20322756  0.44907690  0.16708663    -0.18100
H199        H  0.10148699  0.33691290  0.06981080     0.11000
H200        H  0.11896944  0.37670391  0.10683048     0.11100
H201        H  0.24034840  0.34753471  0.09868764     0.10700
H202        H  0.22260444  0.30759460  0.06168942     0.11800
H203        H  0.16373804  0.40269223  0.13801573     0.11900
H204        H  0.25070379  0.38522045  0.13180667     0.13800
H205        H  0.28129993  0.39866324  0.17997310     0.10300
H206        H  0.28484906  0.43401608  0.22298373     0.12400
H207        H  0.18338838  0.48822219  0.19469309     0.09000
H208        H  0.18045102  0.45412966  0.15170393     0.11800
C209        C  0.42766549  0.81661639  0.06070829    -0.02800
C210        C  0.40096096  0.83725812  0.07520934    -0.05400
C211        C  0.41385134  0.86066709  0.09517936    -0.20500
C212        C  0.45381583  0.86432413  0.10137219     0.25200
C213        C  0.48082420  0.84348974  0.08711471    -0.18100
C214        C  0.46780661  0.81981301  0.06702995    -0.08000
C215        C  0.46502767  0.89100325  0.12211253    -0.18300
C216        C  0.50045359  0.89526512  0.13436227    -0.23100
C217        C  0.50682139  0.92181828  0.15636059     0.27300
C218        C  0.03137475  0.91592631  0.17991663    -0.19900
C219        C  0.03153929  0.93793189  0.20340070    -0.09500
C220        C  0.50726693  0.96614892  0.20346318    -0.10100
C221        C  0.48619654  0.97381039  0.17862830    -0.03000
C222        C  0.48624275  0.95212550  0.15524742    -0.18100
H223        H  0.36988165  0.83545440  0.07106529     0.11000
H224        H  0.39227030  0.87623727  0.10576774     0.11100
H225        H  0.51189573  0.84570575  0.09095238     0.10700
H226        H  0.48920905  0.80439431  0.05611660     0.11800
H227        H  0.44148037  0.90752550  0.12871808     0.11900
H228        H  0.52383753  0.87760215  0.13027238     0.13800
H229        H  0.04824447  0.89314579  0.18105837     0.10300
H230        H  0.04812487  0.93151268  0.22227606     0.12400
H231        H  0.46775703  0.99573838  0.17799332     0.09000
H232        H  0.46862286  0.95843155  0.13685408     0.11800
C233        C  0.29192196  0.53258830  0.20171584    -0.02800
C234        C  0.28162031  0.56523622  0.20931164    -0.05400
C235        C  0.27580519  0.58940691  0.18811136    -0.20500
C236        C  0.28114307  0.58135737  0.15906422     0.25200
C237        C  0.28733566  0.54780705  0.15147491    -0.18100
C238        C  0.29294255  0.52369711  0.17266486    -0.08000
C239        C  0.28536393  0.60868975  0.13766295    -0.18300
C240        C  0.31311043  0.60716148  0.11698414    -0.23100
C241        C  0.32489816  0.63513605  0.09779143     0.27300
C242        C  0.36173758  0.63322108  0.08440800    -0.19900
C243        C  0.37470352  0.65826364  0.06591816    -0.09500
C244        C  0.35097686  0.68591469  0.05995161    -0.10100
C245        C  0.31389398  0.68797343  0.07322717    -0.03000
C246        C  0.30097795  0.66287756  0.09207448    -0.18100
H247        H  0.28229244  0.57289330  0.23150203     0.11000
H248        H  0.27087449  0.61501044  0.19451389     0.11100
H249        H  0.29039418  0.54059508  0.12921771     0.10700
H250        H  0.30131950  0.49869480  0.16637605     0.11800
H251        H  0.26961338  0.63174926  0.14144186     0.11900
H252        H  0.33092659  0.58480631  0.11558168     0.13800
H253        H  0.38077982  0.61216210  0.08831296     0.10300
H254        H  0.40325073  0.65563223  0.05595198     0.12400
H255        H  0.29477249  0.70884415  0.06891011     0.09000
H256        H  0.27213671  0.66500304  0.10159338     0.11800
C257        C  0.32941901  0.46865771  0.70346209    -0.02800
C258        C  0.30697612  0.43937103  0.70260855    -0.05400
C259        C  0.30786527  0.41894141  0.67814300    -0.20500
C260        C  0.33124207  0.42745246  0.65426550     0.25200
C261        C  0.35044754  0.45850302  0.65428975    -0.18100
C262        C  0.34991185  0.47858523  0.67872546    -0.08000
C263        C  0.33717530  0.40269505  0.63067032    -0.18300
C264        C  0.37020705  0.40197162  0.61452557    -0.23100
C265        C  0.38087374  0.37537463  0.59350203     0.27300
C266        C  0.42006201  0.37347272  0.58431284    -0.19900
C267        C  0.43240264  0.34860119  0.56535490    -0.09500
C268        C  0.40579081  0.32494614  0.55479110    -0.10100
C269        C  0.36629849  0.32717386  0.56341731    -0.03000
C270        C  0.35391606  0.35210786  0.58255864    -0.18100
H271        H  0.29100949  0.43115863  0.72144796     0.11000
H272        H  0.29213943  0.39549216  0.67854148     0.11100
H273        H  0.36702648  0.46698088  0.63586102     0.10700
H274        H  0.36693483  0.50138279  0.67873902     0.11800
H275        H  0.31581522  0.38282739  0.62872637     0.11900
H276        H  0.39263990  0.42054036  0.61845376     0.13800
H277        H  0.44149887  0.39114181  0.59212544     0.10300
H278        H  0.46293671  0.34795497  0.55898843     0.12400
H279        H  0.34490782  0.30965018  0.55535688     0.09000
H280        H  0.32328748  0.35309841  0.58846186     0.11800
C281        C  0.34843785  0.68761857  0.94081769    -0.02800
C282        C  0.31113748  0.69109992  0.92857622    -0.05400
C283        C  0.29792838  0.66837561  0.90793808    -0.20500
C284        C  0.32131686  0.64132547  0.89947063     0.25200
C285        C  0.35856603  0.63775238  0.91179140    -0.18100
C286        C  0.37193280  0.66061868  0.93216255    -0.08000
C287        C  0.30770941  0.61875070  0.87618767    -0.18300
C288        C  0.31825937  0.58641147  0.87475126    -0.23100
C289        C  0.31235062  0.56404918  0.84951025     0.27300
C290        C  0.32863184  0.53196716  0.85076376    -0.19900
C291        C  0.33172660  0.51230948  0.82618497    -0.09500
C292        C  0.31791252  0.52393706  0.79984037    -0.10100
C293        C  0.29818234  0.55452968  0.79885985    -0.03000
C294        C  0.29545376  0.57455810  0.82349334    -0.18100
H295        H  0.29228405  0.71160446  0.93470452     0.11000
H296        H  0.26933857  0.67192757  0.89853543     0.11100
H297        H  0.37796806  0.61786268  0.90512736     0.10700
H298        H  0.40086318  0.65720682  0.94101903     0.11800
H299        H  0.28927356  0.62953195  0.85985058     0.11900
H300        H  0.33461805  0.57611098  0.89254998     0.13800
H301        H  0.34150807  0.52291925  0.87042053     0.10300
H302        H  0.34720109  0.48880220  0.82733498     0.12400
H303        H  0.28765620  0.56409021  0.77865305     0.09000
H304        H  0.28214421  0.59881580  0.82142479     0.11800
C305        C  0.16802376  0.32089379  0.94206339    -0.02800
C306        C  0.14395045  0.34724509  0.93328685    -0.05400
C307        C  0.15782459  0.37118124  0.91395764    -0.20500
C308        C  0.19609768  0.36954652  0.90274730     0.25200
C309        C  0.22038734  0.34320037  0.91158542    -0.18100
C310        C  0.20646210  0.31920691  0.93103352    -0.08000
C311        C  0.20840592  0.39572301  0.88175640    -0.18300
C312        C  0.24343471  0.39767089  0.86813794    -0.23100
C313        C  0.25115510  0.42318886  0.84552192     0.27300
C314        C  0.27489508  0.41516142  0.82173979    -0.19900
C315        C  0.27647883  0.43631541  0.79778974    -0.09500
C316        C  0.25447826  0.46578561  0.79749616    -0.10100
C317        C  0.23418949  0.47543128  0.82237794    -0.03000
C318        C  0.23284864  0.45455876  0.84626570    -0.18100
H319        H  0.11432854  0.34952418  0.94145640     0.11000
H320        H  0.13835657  0.39112801  0.90767503     0.11100
H321        H  0.25003846  0.34080460  0.90368893     0.10700
H322        H  0.22587423  0.29928570  0.93742518     0.11800
H323        H  0.18613866  0.41386739  0.87630149     0.11900
H324        H  0.26560385  0.37885501  0.87158037     0.13800
H325        H  0.28994040  0.39144774  0.82084345     0.10300
H326        H  0.29217457  0.42836612  0.77874479     0.12400
H327        H  0.21738792  0.49831127  0.82267300     0.09000
H328        H  0.21595886  0.46241207  0.86476396     0.11800
C329        C  0.14255870  0.81961676  0.44528364    -0.02800
C330        C  0.17060918  0.84267658  0.43561460    -0.05400
C331        C  0.16084110  0.86671008  0.41527287    -0.20500
C332        C  0.12288685  0.86831372  0.40395699     0.25200
C333        C  0.09466407  0.84528046  0.41368921    -0.18100
C334        C  0.10448102  0.82115191  0.43406791    -0.08000
C335        C  0.11443725  0.89480044  0.38254822    -0.18300
C336        C  0.08230064  0.89614491  0.36589622    -0.23100
C337        C  0.07750609  0.92206621  0.34337231     0.27300
C338        C  0.05636503  0.91453281  0.31843741    -0.19900
C339        C  0.05638698  0.93665516  0.29518376    -0.09500
C340        C  0.07762895  0.96652871  0.29664349    -0.10100
C341        C  0.09575956  0.97535652  0.32240842    -0.03000
C342        C  0.09532498  0.95357647  0.34568052    -0.18100
H343        H  0.20019535  0.84223310  0.44378806     0.11000
H344        H  0.18318802  0.88414864  0.40829341     0.11100
H345        H  0.06488746  0.84591077  0.40604904     0.10700
H346        H  0.08213324  0.80379401  0.44114777     0.11800
H347        H  0.13726930  0.91328973  0.37935979     0.11900
H348        H  0.06062390  0.87642559  0.36688103     0.13800
H349        H  0.04176001  0.89069629  0.31631056     0.10300
H350        H  0.04224672  0.92936072  0.27546428     0.12400
H351        H  0.11183361  0.99856312  0.32405263     0.09000
H352        H  0.11012637  0.96108456  0.36505663     0.11800
C353        C  0.20045068  0.67936475  0.56105253    -0.02800
C354        C  0.17394017  0.65358466  0.56730166    -0.05400
C355        C  0.18422952  0.62792046  0.58592807    -0.20500
C356        C  0.22115798  0.62732242  0.59896312     0.25200
C357        C  0.24786876  0.65313342  0.59270013    -0.18100
C358        C  0.23754406  0.67886953  0.57394144    -0.08000
C359        C  0.22974377  0.59926812  0.61883232    -0.18300
C360        C  0.26179354  0.59653547  0.63542716    -0.23100
C361        C  0.26559138  0.56936951  0.65692096     0.27300
C362        C  0.28466240  0.57579084  0.68293372    -0.19900
C363        C  0.28239869  0.55285212  0.70551692    -0.09500
C364        C  0.26107258  0.52322845  0.70227101    -0.10100
C365        C  0.24538273  0.51536594  0.67541633    -0.03000
C366        C  0.24799642  0.53801977  0.65281909    -0.18100
H367        H  0.14523232  0.65303664  0.55761948     0.11000
H368        H  0.16304677  0.60839741  0.59021083     0.11100
H369        H  0.27676690  0.65365010  0.60191132     0.10700
H370        H  0.25870425  0.69833414  0.56946277     0.11800
H371        H  0.20693964  0.58055109  0.62096315     0.11900
H372        H  0.28380840  0.61598158  0.63547935     0.13800
H373        H  0.29899456  0.59951348  0.68646224     0.10300
H374        H  0.29459767  0.55943966  0.72609100     0.12400
H375        H  0.22919259  0.49240657  0.67242107     0.09000
H376        H  0.23470147  0.53149058  0.63259936     0.11800
C377        C  0.20314813  0.68900160  0.43948793    -0.02800
C378        C  0.17470345  0.67748684  0.42031917    -0.05400
C379        C  0.18534436  0.65779568  0.39686397    -0.20500
C380        C  0.22449311  0.64850334  0.39232502     0.25200
C381        C  0.25309872  0.65977648  0.41159387    -0.18100
C382        C  0.24250633  0.68004116  0.43487158    -0.08000
C383        C  0.23395019  0.62774327  0.36685802    -0.18300
C384        C  0.26432443  0.60640415  0.36523255    -0.23100
C385        C  0.26781577  0.58250013  0.34104215     0.27300
C386        C  0.27739744  0.54913138  0.34665514    -0.19900
C387        C  0.27280946  0.52480729  0.32539279    -0.09500
C388        C  0.25984990  0.53377458  0.29802813    -0.10100
C389        C  0.25329366  0.56745792  0.29179852    -0.03000
C390        C  0.25753288  0.59169085  0.31302533    -0.18100
H391        H  0.14423265  0.68425145  0.42313185     0.11000
H392        H  0.16278161  0.64959730  0.38225063     0.11100
H393        H  0.28365115  0.65360681  0.40841955     0.10700
H394        H  0.26507096  0.68866548  0.44928645     0.11800
H395        H  0.21265823  0.62777924  0.34966466     0.11900
H396        H  0.28360028  0.60334436  0.38342893     0.13800
H397        H  0.28536711  0.54148904  0.36808753     0.10300
H398        H  0.27664052  0.49882238  0.33090792     0.12400
H399        H  0.24158598  0.57469003  0.27124095     0.09000
H400        H  0.25058672  0.61732352  0.30794955     0.11800
C401        C  0.46701594  0.18769915  0.55819901    -0.02800
C402        C  0.43771754  0.16458325  0.56560278    -0.05400
C403        C  0.44540853  0.13859876  0.58449571    -0.20500
C404        C  0.48247786  0.13491909  0.59679943     0.25200
C405        C  0.51198754  0.15813610  0.58973805    -0.18100
C406        C  0.50426659  0.18430454  0.57057060    -0.08000
C407        C  0.48832650  0.10600863  0.61624793    -0.18300
C408        C  0.51798937  0.10227791  0.63489377    -0.23100
C409        C  0.51764981  0.07458120  0.65612872     0.27300
C410        C  0.03143072  0.08027369  0.68398472    -0.19900
C411        C  0.02372115  0.05719202  0.70583493    -0.09500
C412        C  0.50200787  0.02830083  0.70011620    -0.10100
C413        C  0.49199696  0.02096382  0.67173465    -0.03000
C414        C  0.50020743  0.04364884  0.64985167    -0.18100
H415        H  0.40872422  0.16621296  0.55648560     0.11000
H416        H  0.42209505  0.12114867  0.58945910     0.11100
H417        H  0.54111402  0.15588890  0.59842065     0.10700
H418        H  0.52755250  0.20156187  0.56514693     0.11800
H419        H  0.46486059  0.08773194  0.61657760     0.11900
H420        H  0.04005257  0.12156282  0.63697549     0.13800
H421        H  0.04556910  0.10362230  0.68929875     0.10300
H422        H  0.03189064  0.06323769  0.72747685     0.12400
H423        H  0.47576752  0.99850075  0.66677522     0.09000
H424        H  0.49096116  0.03767076  0.62832072     0.11800
C425        C  0.42464824  0.81555495  0.93867379    -0.02800
C426        C  0.46102926  0.81048810  0.92506092    -0.05400
C427        C  0.47403942  0.83205879  0.90348898    -0.20500
C428        C  0.45143475  0.85954948  0.89539157     0.25200
C429        C  0.41490616  0.86464260  0.90883113    -0.18100
C430        C  0.40161806  0.84279402  0.93019065    -0.08000
C431        C  0.46556679  0.88111279  0.87161554    -0.18300
C432        C  0.45749139  0.91389925  0.87012545    -0.23100
C433        C  0.46666830  0.93509487  0.84475980     0.27300
C434        C  0.44492000  0.96438762  0.84110494    -0.19900
C435        C  0.44792300  0.98266198  0.81577519    -0.09500
C436        C  0.47342277  0.97248767  0.79380476    -0.10100
C437        C  0.49757131  0.94476614  0.79814722    -0.03000
C438        C  0.49429471  0.92616023  0.82347559    -0.18100
H439        H  0.47941180  0.78965298  0.93090961     0.11000
H440        H  0.50200497  0.82736477  0.89317511     0.11100
H441        H  0.39613849  0.88498029  0.90241036     0.10700
H442        H  0.37330261  0.84723295  0.94003606     0.11800
H443        H  0.48263881  0.86917645  0.85486775     0.11900
H444        H  0.44082384  0.92529085  0.88744272     0.13800
H445        H  0.42389531  0.97218654  0.85724071     0.10300
H446        H  0.42915771  0.00411102  0.81283334     0.12400
H447        H  0.01738294  0.93649096  0.78139199     0.09000
H448        H  0.51270198  0.90447536  0.82584309     0.11800
C449        C  0.13940506  0.81440080  0.56671507    -0.02800
C450        C  0.16771491  0.83551900  0.57872047    -0.05400
C451        C  0.15734716  0.85892363  0.59954557    -0.20500
C452        C  0.11839373  0.86211002  0.60897974     0.25200
C453        C  0.08989161  0.84086652  0.59709230    -0.18100
C454        C  0.10035988  0.81724971  0.57620639    -0.08000
C455        C  0.10969907  0.88803971  0.63105792    -0.18300
C456        C  0.07395900  0.89561791  0.64180472    -0.23100
C457        C  0.06853705  0.92181014  0.66416937     0.27300
C458        C  0.03838106  0.91867129  0.68468388    -0.19900
C459        C  0.03605126  0.94074344  0.70801226    -0.09500
C460        C  0.06367790  0.96645039  0.71090623    -0.10100
C461        C  0.09157577  0.97124673  0.68908254    -0.03000
C462        C  0.09387417  0.94937699  0.66590374    -0.18100
H463        H  0.19805716  0.83410385  0.57195890     0.11000
H464        H  0.18002749  0.87482444  0.60822235     0.11100
H465        H  0.05955669  0.84222611  0.60365136     0.10700
H466        H  0.07780688  0.80139414  0.56733925     0.11800
H467        H  0.13485917  0.90146061  0.63926800     0.11900
H468        H  0.04840132  0.88150196  0.63545682     0.13800
H469        H  0.01796679  0.89805108  0.68352340     0.10300
H470        H  0.01432513  0.93643269  0.72459534     0.12400
H471        H  0.11274849  0.99128270  0.69057786     0.09000
H472        H  0.11617799  0.95373093  0.64976027     0.11800
C473        C  0.09600559  0.19003855  0.93907173    -0.02800
C474        C  0.12428233  0.17553066  0.92104098    -0.05400
C475        C  0.11311856  0.15432193  0.89878970    -0.20500
C476        C  0.07358400  0.14638519  0.89450591     0.25200
C477        C  0.04516793  0.16021686  0.91288152    -0.18100
C478        C  0.05628052  0.18215110  0.93480665    -0.08000
C479        C  0.06322052  0.12496498  0.86977923    -0.18300
C480        C  0.03468951  0.10180760  0.87042063    -0.23100
C481        C  0.03088695  0.07782460  0.84643542     0.27300
C482        C  0.03402988  0.04356987  0.85184020    -0.19900
C483        C  0.03924631  0.02116206  0.82912939    -0.09500
C484        C  0.03976990  0.03253021  0.80068370    -0.10100
C485        C  0.03339322  0.06645410  0.79526797    -0.03000
C486        C  0.02917546  0.08897941  0.81795663    -0.18100
H487        H  0.15504895  0.18120757  0.92370858     0.11000
H488        H  0.13550437  0.14399492  0.88484222     0.11100
H489        H  0.01440881  0.15484141  0.90980735     0.10700
H490        H  0.03384384  0.19290909  0.94844622     0.11800
H491        H  0.08241012  0.12607443  0.85110839     0.11900
H492        H  0.01804416  0.09756064  0.88999362     0.13800
H493        H  0.03567142  0.03450304  0.87365124     0.10300
H494        H  0.04525292  0.99524319  0.83381250     0.12400
H495        H  0.03508092  0.07608306  0.77372634     0.09000
H496        H  0.02675529  0.11533971  0.81333132     0.11800
N497        N  0.53969133  0.99881509  0.75461305    -0.03100
C498        C  0.56828158  0.98496792  0.73816784    -0.00500
C499        C  0.60410110  0.98891573  0.75141416    -0.23400
C500        C  0.59719833  0.00556470  0.77670441    -0.23600
C501        C  0.55742350  0.01141589  0.77817697    -0.00600
H502        H  0.63225119  0.98029193  0.74366262     0.13200
H503        H  0.61900307  0.01336325  0.79203408     0.13200
N504        N  0.49934043  0.99964785  0.74846430    -0.03100
C505        C  0.98281246  0.00966542  0.72361646    -0.00500
C506        C  0.94283427  0.00421284  0.72470205    -0.23400
C507        C  0.93465631  0.99060546  0.75111328    -0.23600
C508        C  0.96990676  0.98793321  0.76527841    -0.00600
H509        H  0.92169628  0.01045404  0.70840028     0.13200
H510        H  0.90611698  0.98308801  0.75900902     0.13200
O511        O  0.71722496  0.73049232  0.47467249    -0.74000
O512        O  0.68628539  0.79017025  0.53476279    -0.74100
O513        O  0.71538098  0.72733746  0.53257049    -0.74100
O514        O  0.68794916  0.79325651  0.47680934    -0.74200
O515        O  0.62703995  0.77341336  0.47560941    -0.74100
O516        O  0.65471721  0.70702973  0.53074861    -0.74100
O517        O  0.62550259  0.77008169  0.53361672    -0.74100
O518        O  0.65621226  0.71089924  0.47272280    -0.74100
Ni519      Ni  0.70383386  0.76104389  0.50479034     1.25400
Ni520      Ni  0.63871294  0.73960011  0.50318287     1.25400
C521        C  0.69171279  0.71105971  0.46356391     0.88100
C522        C  0.65086279  0.79026514  0.54401304     0.88100
C523        C  0.68964636  0.70597255  0.54058457     0.88100
C524        C  0.65300960  0.79421576  0.46695442     0.88300
N525        N  0.77017023  0.49368091  0.74979297    -0.03100
C526        C  0.74792647  0.50417315  0.72760285    -0.00500
C527        C  0.70873902  0.49927305  0.73385804    -0.23400
C528        C  0.70685176  0.48569657  0.76083586    -0.23600
C529        C  0.74494858  0.48241371  0.77020299    -0.00600
H530        H  0.68407312  0.50604510  0.72065803     0.13200
H531        H  0.68048145  0.47855450  0.77228094     0.13200
N532        N  0.81138695  0.49516931  0.75148961    -0.03100
C533        C  0.83261800  0.50801666  0.77334824    -0.00500
C534        C  0.87205049  0.50673772  0.76669926    -0.23400
C535        C  0.87515811  0.49295425  0.73982991    -0.23600
C536        C  0.83751894  0.48595462  0.73086842    -0.00600
H537        H  0.89596991  0.51553694  0.77978740     0.13200
H538        H  0.90209995  0.48807375  0.72823541     0.13200
O539        O  0.84021979  0.73475128  0.97206939    -0.74000
O540        O  0.87773815  0.79453442  0.03021076    -0.74100
O541        O  0.87637990  0.79527209  0.97199864    -0.74100
O542        O  0.84127693  0.73402350  0.03017409    -0.74200
O543        O  0.89988785  0.70979022  0.02937827    -0.74100
O544        O  0.93415736  0.76965999  0.97044529    -0.74100
O545        O  0.93633047  0.77033335  0.02852061    -0.74100
O546        O  0.89815028  0.70936547  0.97157877    -0.74100
Ni547      Ni  0.85685211  0.76559561  0.00118283     1.25400
Ni548      Ni  0.91916878  0.73894836  0.99997564     1.25400
C549        C  0.86293487  0.71181563  0.96247978     0.88100
C550        C  0.91329352  0.79259948  0.03879281     0.88100
C551        C  0.91100800  0.79241416  0.96147017     0.88100
C552        C  0.86469270  0.71136055  0.03902047     0.88300
N553        N  0.75946483  0.49560612  0.25509260    -0.03100
C554        C  0.73051540  0.48046750  0.24021594    -0.00500
C555        C  0.69544587  0.48350372  0.25499189    -0.23400
C556        C  0.70321629  0.50128045  0.27950896    -0.23600
C557        C  0.74275890  0.50849508  0.27902746    -0.00600
H558        H  0.66709537  0.47432885  0.24839465     0.13200
H559        H  0.68192510  0.50966321  0.29520221     0.13200
N560        N  0.79915272  0.49818891  0.24691313    -0.03100
C561        C  0.81330551  0.51186351  0.22240396    -0.00500
C562        C  0.85353835  0.50882641  0.22140852    -0.23400
C563        C  0.86441266  0.49278328  0.24610024    -0.23600
C564        C  0.83045248  0.48634134  0.26148635    -0.00600
H565        H  0.87302161  0.51831646  0.20493521     0.13200
H566        H  0.89398638  0.48624348  0.25204189     0.13200
O567        O  0.98494634  0.23454188  0.52842385    -0.74000
O568        O  0.96044737  0.29778837  0.46890829    -0.74100
O569        O  0.95546457  0.29785588  0.52689580    -0.74100
O570        O  0.99039427  0.23502534  0.47036572    -0.74200
O571        O  0.93021794  0.21377170  0.46816120    -0.70100
O572        O  0.89477753  0.27786915  0.52396945    -0.74100
O573        O  0.90033311  0.27649753  0.46625051    -0.74100
O574        O  0.92407246  0.21490427  0.52586430    -0.74100
Ni575      Ni  0.97498696  0.26704568  0.49879116     1.25400
Ni576      Ni  0.91026867  0.24502595  0.49599602     1.25400
C577        C  0.95840655  0.21388690  0.53664320     0.88100
C578        C  0.92609109  0.29761006  0.45788862     0.88100
C579        C  0.91928063  0.29883269  0.53434594     0.88100
C580        C  0.96620067  0.21384737  0.46002865     0.88300
O581        O  0.58161122  0.23537637  0.02941514    -0.74000
O582        O  0.61757586  0.29677205  0.97164818    -0.74100
O583        O  0.58349003  0.23516383  0.97129688    -0.74100
O584        O  0.61486702  0.29655349  0.02965021    -0.74200
O585        O  0.67407567  0.27341772  0.03093689    -0.74100
O586        O  0.64304375  0.21256744  0.97158995    -0.74100
O587        O  0.67690208  0.27389797  0.97292622    -0.74100
O588        O  0.64070628  0.21194941  0.02974276    -0.74100
Ni589      Ni  0.59729574  0.26678110  0.00040638     1.25400
Ni590      Ni  0.66075129  0.24208658  0.00131489     1.25400
C591        C  0.60541436  0.21353276  0.03916144     0.88100
C592        C  0.65339564  0.29588916  0.96311896     0.88100
C593        C  0.60805099  0.21367078  0.96180413     0.88100
C594        C  0.64944671  0.29515546  0.04002398     0.88300
N595        N  0.56250998  0.99589317  0.24992605    -0.03100
C596        C  0.58483748  0.00879032  0.22855165    -0.00500
C597        C  0.62400619  0.00629838  0.23539711    -0.23400
C598        C  0.62569864  0.99164095  0.26198662    -0.23600
C599        C  0.58750909  0.98536958  0.27042819    -0.00600
H600        H  0.64865194  0.01480878  0.22265777     0.13200
H601        H  0.65201190  0.98549536  0.27362579     0.13200
N602        N  0.52124945  0.99498741  0.25111129    -0.03100
C603        C  0.99821449  0.00617427  0.27289326    -0.00500
C604        C  0.95925780  0.00169031  0.26609710    -0.23400
C605        C  0.95835614  0.98760322  0.23928123    -0.23600
C606        C  0.99680515  0.98359381  0.23045689    -0.00600
H607        H  0.93412085  0.00846955  0.27907678     0.13200
H608        H  0.93235758  0.98033526  0.22770657     0.13200
C609        C  0.59230279  0.18983004  0.06163751    -0.02800
C610        C  0.55841495  0.19595326  0.07810390    -0.05400
C611        C  0.54704523  0.17385429  0.09989574    -0.20500
C612        C  0.56875695  0.14485360  0.10518169     0.25200
C613        C  0.60264617  0.13879628  0.08869168    -0.18100
C614        C  0.61429072  0.16104563  0.06725805    -0.08000
C615        C  0.55752888  0.12254959  0.12933705    -0.18300
C616        C  0.56469295  0.08951777  0.12873121    -0.23100
C617        C  0.56222482  0.06689262  0.15400539     0.27300
C618        C  0.58055609  0.03568329  0.15176361    -0.19900
C619        C  0.58535060  0.01561597  0.17586610    -0.09500
C620        C  0.57105199  0.02591845  0.20261705    -0.10100
C621        C  0.54980704  0.05568380  0.20467954    -0.03000
C622        C  0.54549329  0.07617203  0.18056779    -0.18100
H623        H  0.54110602  0.21812481  0.07449792     0.11000
H624        H  0.52123214  0.17937868  0.11263916     0.11100
H625        H  0.62094407  0.11736844  0.09285403     0.10700
H626        H  0.64068664  0.15572175  0.05511904     0.11800
H627        H  0.54458454  0.13410678  0.14811639     0.11900
H628        H  0.57620176  0.07879763  0.10902458     0.13800
H629        H  0.59336052  0.02763254  0.13162251     0.10300
H630        H  0.60187692  0.99269034  0.17392311     0.12400
H631        H  0.53876863  0.06408858  0.22524561     0.09000
H632        H  0.53029806  0.09956284  0.18322265     0.11800
C633        C  0.98012388  0.18922696  0.43846360    -0.02800
C634        C  0.01695136  0.19297580  0.42511979    -0.05400
C635        C  0.02977770  0.17015361  0.40436507    -0.20500
C636        C  0.00654666  0.14266274  0.39696206     0.25200
C637        C  0.96980858  0.13875835  0.41042535    -0.18100
C638        C  0.95672369  0.16182709  0.43085776    -0.08000
C639        C  0.01966815  0.11985727  0.37362144    -0.18300
C640        C  0.01064085  0.08714328  0.37357073    -0.23100
C641        C  0.01562146  0.06421806  0.34858374     0.27300
C642        C  0.99625158  0.03337790  0.34980555    -0.19900
C643        C  0.99344237  0.01326262  0.32552904    -0.09500
C644        C  0.01061737  0.02310350  0.29950987    -0.10100
C645        C  0.53308925  0.05238446  0.29868440    -0.03000
C646        C  0.03553940  0.07291528  0.32302493    -0.18100
H647        H  0.03565146  0.21388107  0.43037979     0.11000
H648        H  0.55793904  0.17395949  0.39405596     0.11100
H649        H  0.95059178  0.11842581  0.40458664     0.10700
H650        H  0.92818790  0.15824368  0.44063872     0.11800
H651        H  0.03598310  0.13079174  0.35599253     0.11900
H652        H  0.99573280  0.07704163  0.39229531     0.13800
H653        H  0.98104624  0.02570263  0.36915790     0.10300
H654        H  0.97600086  0.99072465  0.32665211     0.12400
H655        H  0.54646650  0.06051121  0.27878311     0.09000
H656        H  0.55165175  0.09599815  0.32121027     0.11800
C657        C  0.83029310  0.46756451  0.28884248    -0.02800
C658        C  0.80410183  0.44120568  0.29392747    -0.05400
C659        C  0.80954875  0.41991238  0.31743091    -0.20500
C660        C  0.84141888  0.42440966  0.33600148     0.25200
C661        C  0.86597192  0.45214156  0.33183742    -0.18100
C662        C  0.86055275  0.47328149  0.30847760    -0.08000
C663        C  0.84858617  0.39976316  0.35928446    -0.18300
C664        C  0.88473092  0.39346248  0.36966379    -0.23100
C665        C  0.89406148  0.36865415  0.39250475     0.27300
C666        C  0.93299297  0.36631738  0.40199978    -0.19900
C667        C  0.94355716  0.34344094  0.42324026    -0.09500
C668        C  0.91542370  0.32210436  0.43541473    -0.10100
C669        C  0.87648206  0.32441313  0.42600060    -0.03000
C670        C  0.86587698  0.34734558  0.40487858    -0.18100
H671        H  0.78076811  0.43598339  0.27902029     0.11000
H672        H  0.78981200  0.39903426  0.32040755     0.11100
H673        H  0.88970507  0.45745989  0.34636593     0.10700
H674        H  0.88081635  0.49375260  0.30528764     0.11800
H675        H  0.82350236  0.38571808  0.36685242     0.11900
H676        H  0.90947657  0.40686123  0.36057479     0.13800
H677        H  0.95543688  0.38232563  0.39294861     0.10300
H678        H  0.97378932  0.34236618  0.43000238     0.12400
H679        H  0.85397227  0.30846962  0.43502539     0.09000
H680        H  0.83559948  0.34789237  0.39844456     0.11800
C681        C  0.66066158  0.31908670  0.06275635    -0.02800
C682        C  0.63193125  0.33901193  0.07587725    -0.05400
C683        C  0.64197514  0.36183506  0.09714430    -0.20500
C684        C  0.68099647  0.36561930  0.10584749     0.25200
C685        C  0.70994493  0.34566309  0.09273102    -0.18100
C686        C  0.69978221  0.32256227  0.07146075    -0.08000
C687        C  0.68919857  0.39051225  0.12875569    -0.18300
C688        C  0.72480857  0.39819812  0.13928882    -0.23100
C689        C  0.72961306  0.42257435  0.16309944     0.27300
C690        C  0.76022287  0.41854914  0.18279205    -0.19900
C691        C  0.76241515  0.43881509  0.20725491    -0.09500
C692        C  0.73402841  0.46341969  0.21222721    -0.10100
C693        C  0.70519986  0.46897262  0.19152286    -0.03000
C694        C  0.70322760  0.44907691  0.16708667    -0.18100
H695        H  0.60148705  0.33691273  0.06981086     0.11000
H696        H  0.61896940  0.37670385  0.10683045     0.11100
H697        H  0.74034844  0.34753480  0.09868763     0.10700
H698        H  0.72260461  0.30759470  0.06168941     0.11800
H699        H  0.66373796  0.40269225  0.13801573     0.11900
H700        H  0.75070370  0.38522045  0.13180668     0.13800
H701        H  0.78129987  0.39866317  0.17997311     0.10300
H702        H  0.78484917  0.43401603  0.22298372     0.12400
H703        H  0.68338851  0.48822220  0.19469314     0.09000
H704        H  0.68045097  0.45412967  0.15170398     0.11800
C705        C  0.92766542  0.81661639  0.06070831    -0.02800
C706        C  0.90096089  0.83725812  0.07520935    -0.05400
C707        C  0.91385126  0.86066710  0.09517937    -0.20500
C708        C  0.95381577  0.86432413  0.10137219     0.25200
C709        C  0.98082413  0.84348973  0.08711471    -0.18100
C710        C  0.96780654  0.81981300  0.06702995    -0.08000
C711        C  0.96502760  0.89100325  0.12211254    -0.18300
C712        C  0.00045354  0.89526511  0.13436228    -0.23100
C713        C  0.00682140  0.92181829  0.15636058     0.27300
C714        C  0.53137470  0.91592628  0.17991665    -0.19900
C715        C  0.53153925  0.93793186  0.20340073    -0.09500
C716        C  0.00726692  0.96614893  0.20346318    -0.10100
C717        C  0.98619649  0.97381036  0.17862831    -0.03000
C718        C  0.98624271  0.95212548  0.15524743    -0.18100
H719        H  0.86988157  0.83545441  0.07106530     0.11000
H720        H  0.89227025  0.87623728  0.10576773     0.11100
H721        H  0.01189568  0.84570573  0.09095237     0.10700
H722        H  0.98920896  0.80439430  0.05611660     0.11800
H723        H  0.94148030  0.90752550  0.12871808     0.11900
H724        H  0.02383744  0.87760214  0.13027237     0.13800
H725        H  0.54824445  0.89314578  0.18105837     0.10300
H726        H  0.54812484  0.93151267  0.22227607     0.12400
H727        H  0.96775692  0.99573832  0.17799335     0.09000
H728        H  0.96862275  0.95843150  0.13685412     0.11800
C729        C  0.79192188  0.53258827  0.20171586    -0.02800
C730        C  0.78162025  0.56523620  0.20931165    -0.05400
C731        C  0.77580531  0.58940694  0.18811137    -0.20500
C732        C  0.78114314  0.58135739  0.15906422     0.25200
C733        C  0.78733559  0.54780705  0.15147492    -0.18100
C734        C  0.79294244  0.52369709  0.17266487    -0.08000
C735        C  0.78536390  0.60868975  0.13766294    -0.18300
C736        C  0.81311033  0.60716147  0.11698409    -0.23100
C737        C  0.82489806  0.63513602  0.09779137     0.27300
C738        C  0.86173749  0.63322105  0.08440795    -0.19900
C739        C  0.87470346  0.65826363  0.06591815    -0.09500
C740        C  0.85097682  0.68591469  0.05995160    -0.10100
C741        C  0.81389394  0.68797345  0.07322715    -0.03000
C742        C  0.80097787  0.66287758  0.09207447    -0.18100
H743        H  0.78229234  0.57289328  0.23150203     0.11000
H744        H  0.77087470  0.61501048  0.19451390     0.11100
H745        H  0.79039402  0.54059507  0.12921771     0.10700
H746        H  0.80131934  0.49869478  0.16637605     0.11800
H747        H  0.76961334  0.63174926  0.14144187     0.11900
H748        H  0.83092650  0.58480630  0.11558162     0.13800
H749        H  0.88077975  0.61216209  0.08831292     0.10300
H750        H  0.90325068  0.65563223  0.05595198     0.12400
H751        H  0.79477245  0.70884418  0.06891009     0.09000
H752        H  0.77213671  0.66500310  0.10159341     0.11800
C753        C  0.82941895  0.46865773  0.70346208    -0.02800
C754        C  0.80697616  0.43937099  0.70260857    -0.05400
C755        C  0.80786536  0.41894136  0.67814303    -0.20500
C756        C  0.83124211  0.42745244  0.65426552     0.25200
C757        C  0.85044751  0.45850304  0.65428974    -0.18100
C758        C  0.84991176  0.47858527  0.67872545    -0.08000
C759        C  0.83717526  0.40269505  0.63067032    -0.18300
C760        C  0.87020699  0.40197164  0.61452556    -0.23100
C761        C  0.88087373  0.37537464  0.59350202     0.27300
C762        C  0.92006203  0.37347279  0.58431285    -0.19900
C763        C  0.93240268  0.34860128  0.56535488    -0.09500
C764        C  0.90579091  0.32494618  0.55479110    -0.10100
C765        C  0.86629859  0.32717385  0.56341732    -0.03000
C766        C  0.85391610  0.35210785  0.58255864    -0.18100
H767        H  0.79100955  0.43115858  0.72144796     0.11000
H768        H  0.79213952  0.39549211  0.67854148     0.11100
H769        H  0.86702638  0.46698094  0.63586100     0.10700
H770        H  0.86693469  0.50138287  0.67873900     0.11800
H771        H  0.81581516  0.38282739  0.62872636     0.11900
H772        H  0.89263982  0.42054037  0.61845377     0.13800
H773        H  0.94149879  0.39114190  0.59212549     0.10300
H774        H  0.96293679  0.34795512  0.55898839     0.12400
H775        H  0.84490799  0.30965015  0.55535688     0.09000
H776        H  0.82328753  0.35309835  0.58846183     0.11800
C777        C  0.84843788  0.68761857  0.94081768    -0.02800
C778        C  0.81113752  0.69109996  0.92857622    -0.05400
C779        C  0.79792836  0.66837564  0.90793810    -0.20500
C780        C  0.82131677  0.64132547  0.89947064     0.25200
C781        C  0.85856595  0.63775236  0.91179140    -0.18100
C782        C  0.87193278  0.66061864  0.93216254    -0.08000
C783        C  0.80770929  0.61875070  0.87618768    -0.18300
C784        C  0.81825928  0.58641147  0.87475126    -0.23100
C785        C  0.81235051  0.56404915  0.84951026     0.27300
C786        C  0.82863181  0.53196715  0.85076378    -0.19900
C787        C  0.83172672  0.51230951  0.82618498    -0.09500
C788        C  0.81791266  0.52393707  0.79984037    -0.10100
C789        C  0.79818245  0.55452969  0.79885983    -0.03000
C790        C  0.79545373  0.57455807  0.82349333    -0.18100
H791        H  0.79228413  0.71160454  0.93470450     0.11000
H792        H  0.76933850  0.67192764  0.89853547     0.11100
H793        H  0.87796795  0.61786263  0.90512735     0.10700
H794        H  0.90086315  0.65720673  0.94101902     0.11800
H795        H  0.78927339  0.62953193  0.85985060     0.11900
H796        H  0.83461799  0.57611100  0.89254996     0.13800
H797        H  0.84150800  0.52291927  0.87042056     0.10300
H798        H  0.84720128  0.48880226  0.82733500     0.12400
H799        H  0.78765638  0.56409022  0.77865301     0.09000
H800        H  0.78214415  0.59881577  0.82142476     0.11800
C801        C  0.66802371  0.32089379  0.94206339    -0.02800
C802        C  0.64395038  0.34724508  0.93328685    -0.05400
C803        C  0.65782453  0.37118122  0.91395764    -0.20500
C804        C  0.69609761  0.36954652  0.90274730     0.25200
C805        C  0.72038728  0.34320038  0.91158544    -0.18100
C806        C  0.70646205  0.31920691  0.93103352    -0.08000
C807        C  0.70840583  0.39572301  0.88175641    -0.18300
C808        C  0.74343460  0.39767089  0.86813793    -0.23100
C809        C  0.75115499  0.42318885  0.84552191     0.27300
C810        C  0.77489501  0.41516141  0.82173979    -0.19900
C811        C  0.77647886  0.43631545  0.79778978    -0.09500
C812        C  0.75447823  0.46578561  0.79749616    -0.10100
C813        C  0.73418940  0.47543126  0.82237792    -0.03000
C814        C  0.73284856  0.45455875  0.84626569    -0.18100
H815        H  0.61432847  0.34952417  0.94145640     0.11000
H816        H  0.63835648  0.39112801  0.90767504     0.11100
H817        H  0.75003845  0.34080463  0.90368896     0.10700
H818        H  0.72587418  0.29928570  0.93742517     0.11800
H819        H  0.68613855  0.41386739  0.87630151     0.11900
H820        H  0.76560375  0.37885500  0.87158036     0.13800
H821        H  0.78994031  0.39144772  0.82084345     0.10300
H822        H  0.79217470  0.42836620  0.77874485     0.12400
H823        H  0.71738783  0.49831124  0.82267296     0.09000
H824        H  0.71595879  0.46241209  0.86476397     0.11800
C825        C  0.64255868  0.81961676  0.44528364    -0.02800
C826        C  0.67060915  0.84267660  0.43561462    -0.05400
C827        C  0.66084107  0.86671007  0.41527286    -0.20500
C828        C  0.62288683  0.86831374  0.40395699     0.25200
C829        C  0.59466405  0.84528047  0.41368921    -0.18100
C830        C  0.60448099  0.82115190  0.43406789    -0.08000
C831        C  0.61443728  0.89480049  0.38254823    -0.18300
C832        C  0.58230063  0.89614495  0.36589624    -0.23100
C833        C  0.57750618  0.92206623  0.34337229     0.27300
C834        C  0.55636510  0.91453278  0.31843740    -0.19900
C835        C  0.55638700  0.93665515  0.29518377    -0.09500
C836        C  0.57762901  0.96652867  0.29664347    -0.10100
C837        C  0.59575952  0.97535656  0.32240842    -0.03000
C838        C  0.59532494  0.95357652  0.34568053    -0.18100
H839        H  0.70019530  0.84223314  0.44378811     0.11000
H840        H  0.68318799  0.88414863  0.40829337     0.11100
H841        H  0.56488744  0.84591079  0.40604904     0.10700
H842        H  0.58213322  0.80379398  0.44114773     0.11800
H843        H  0.63726935  0.91328972  0.37935978     0.11900
H844        H  0.56062388  0.87642572  0.36688109     0.13800
H845        H  0.54176013  0.89069628  0.31631057     0.10300
H846        H  0.54224667  0.92936070  0.27546429     0.12400
H847        H  0.61183351  0.99856318  0.32405263     0.09000
H848        H  0.61012626  0.96108465  0.36505667     0.11800
C849        C  0.70045067  0.67936476  0.56105254    -0.02800
C850        C  0.67394014  0.65358464  0.56730165    -0.05400
C851        C  0.68422954  0.62792045  0.58592807    -0.20500
C852        C  0.72115800  0.62732241  0.59896311     0.25200
C853        C  0.74786875  0.65313345  0.59270013    -0.18100
C854        C  0.73754402  0.67886956  0.57394146    -0.08000
C855        C  0.72974386  0.59926811  0.61883229    -0.18300
C856        C  0.76179362  0.59653548  0.63542714    -0.23100
C857        C  0.76559140  0.56936956  0.65692098     0.27300
C858        C  0.78466245  0.57579086  0.68293372    -0.19900
C859        C  0.78239876  0.55285216  0.70551691    -0.09500
C860        C  0.76107261  0.52322849  0.70227102    -0.10100
C861        C  0.74538276  0.51536597  0.67541634    -0.03000
C862        C  0.74799642  0.53801981  0.65281912    -0.18100
H863        H  0.64523234  0.65303660  0.55761947     0.11000
H864        H  0.66304678  0.60839737  0.59021087     0.11100
H865        H  0.77676687  0.65365015  0.60191132     0.10700
H866        H  0.75870419  0.69833418  0.56946279     0.11800
H867        H  0.70693974  0.58055108  0.62096315     0.11900
H868        H  0.78380851  0.61598160  0.63547933     0.13800
H869        H  0.79899466  0.59951351  0.68646221     0.10300
H870        H  0.79459781  0.55943969  0.72609098     0.12400
H871        H  0.72919264  0.49240658  0.67242107     0.09000
H872        H  0.73470143  0.53149062  0.63259939     0.11800
C873        C  0.70314814  0.68900165  0.43948789    -0.02800
C874        C  0.67470341  0.67748686  0.42031915    -0.05400
C875        C  0.68534436  0.65779571  0.39686395    -0.20500
C876        C  0.72449311  0.64850340  0.39232498     0.25200
C877        C  0.75309869  0.65977652  0.41159385    -0.18100
C878        C  0.74250632  0.68004118  0.43487156    -0.08000
C879        C  0.73395019  0.62774330  0.36685801    -0.18300
C880        C  0.76432441  0.60640417  0.36523254    -0.23100
C881        C  0.76781575  0.58250013  0.34104216     0.27300
C882        C  0.77739733  0.54913137  0.34665517    -0.19900
C883        C  0.77280937  0.52480728  0.32539281    -0.09500
C884        C  0.75984986  0.53377459  0.29802815    -0.10100
C885        C  0.75329375  0.56745794  0.29179851    -0.03000
C886        C  0.75753297  0.59169087  0.31302532    -0.18100
H887        H  0.64423265  0.68425142  0.42313184     0.11000
H888        H  0.66278155  0.64959727  0.38225063     0.11100
H889        H  0.78365116  0.65360680  0.40841956     0.10700
H890        H  0.76507096  0.68866543  0.44928646     0.11800
H891        H  0.71265820  0.62777925  0.34966466     0.11900
H892        H  0.78360029  0.60334441  0.38342894     0.13800
H893        H  0.78536699  0.54148902  0.36808755     0.10300
H894        H  0.77664044  0.49882237  0.33090792     0.12400
H895        H  0.74158615  0.57469007  0.27124092     0.09000
H896        H  0.75058689  0.61732354  0.30794953     0.11800
C897        C  0.96701602  0.18769913  0.55819900    -0.02800
C898        C  0.93771759  0.16458326  0.56560275    -0.05400
C899        C  0.94540852  0.13859879  0.58449570    -0.20500
C900        C  0.98247781  0.13491909  0.59679946     0.25200
C901        C  0.01198754  0.15813609  0.58973810    -0.18100
C902        C  0.00426664  0.18430451  0.57057061    -0.08000
C903        C  0.98832646  0.10600864  0.61624796    -0.18300
C904        C  0.01798937  0.10227789  0.63489375    -0.23100
C905        C  0.01764980  0.07458120  0.65612871     0.27300
C906        C  0.53143075  0.08027366  0.68398472    -0.19900
C907        C  0.52372107  0.05719204  0.70583494    -0.09500
C908        C  0.00200799  0.02830079  0.70011620    -0.10100
C909        C  0.99199702  0.02096380  0.67173465    -0.03000
C910        C  0.00020740  0.04364886  0.64985168    -0.18100
H911        H  0.90872430  0.16621298  0.55648554     0.11000
H912        H  0.92209497  0.12114870  0.58945907     0.11100
H913        H  0.04111395  0.15588889  0.59842073     0.10700
H914        H  0.02755260  0.20156182  0.56514696     0.11800
H915        H  0.96486052  0.08773197  0.61657766     0.11900
H916        H  0.54005253  0.12156287  0.63697555     0.13800
H917        H  0.54556923  0.10362224  0.68929874     0.10300
H918        H  0.53189050  0.06323771  0.72747686     0.12400
H919        H  0.97576759  0.99850074  0.66677524     0.09000
H920        H  0.99096101  0.03767080  0.62832075     0.11800
C921        C  0.92464824  0.81555496  0.93867379    -0.02800
C922        C  0.96102928  0.81048809  0.92506091    -0.05400
C923        C  0.97403943  0.83205878  0.90348898    -0.20500
C924        C  0.95143482  0.85954948  0.89539158     0.25200
C925        C  0.91490620  0.86464261  0.90883114    -0.18100
C926        C  0.90161809  0.84279403  0.93019064    -0.08000
C927        C  0.96556688  0.88111279  0.87161555    -0.18300
C928        C  0.95749154  0.91389925  0.87012549    -0.23100
C929        C  0.96666834  0.93509488  0.84475984     0.27300
C930        C  0.94492001  0.96438759  0.84110498    -0.19900
C931        C  0.94792291  0.98266194  0.81577521    -0.09500
C932        C  0.97342273  0.97248768  0.79380478    -0.10100
C933        C  0.99757129  0.94476618  0.79814725    -0.03000
C934        C  0.99429473  0.92616024  0.82347559    -0.18100
H935        H  0.97941176  0.78965296  0.93090957     0.11000
H936        H  0.00200502  0.82736473  0.89317511     0.11100
H937        H  0.89613858  0.88498033  0.90241039     0.10700
H938        H  0.87330263  0.84723301  0.94003608     0.11800
H939        H  0.98263887  0.86917642  0.85486773     0.11900
H940        H  0.94082403  0.92529085  0.88744281     0.13800
H941        H  0.92389531  0.97218651  0.85724079     0.10300
H942        H  0.92915756  0.00411093  0.81283338     0.12400
H943        H  0.51738291  0.93649089  0.78139198     0.09000
H944        H  0.01270195  0.90447537  0.82584305     0.11800
C945        C  0.63940499  0.81440081  0.56671503    -0.02800
C946        C  0.66771485  0.83551900  0.57872045    -0.05400
C947        C  0.65734711  0.85892363  0.59954556    -0.20500
C948        C  0.61839369  0.86211002  0.60897974     0.25200
C949        C  0.58989154  0.84086650  0.59709231    -0.18100
C950        C  0.60035984  0.81724970  0.57620638    -0.08000
C951        C  0.60969906  0.88803972  0.63105792    -0.18300
C952        C  0.57395897  0.89561790  0.64180473    -0.23100
C953        C  0.56853701  0.92181015  0.66416937     0.27300
C954        C  0.53838103  0.91867131  0.68468387    -0.19900
C955        C  0.53605126  0.94074344  0.70801228    -0.09500
C956        C  0.56367793  0.96645039  0.71090624    -0.10100
C957        C  0.59157580  0.97124670  0.68908256    -0.03000
C958        C  0.59387415  0.94937699  0.66590373    -0.18100
H959        H  0.69805709  0.83410385  0.57195888     0.11000
H960        H  0.68002744  0.87482443  0.60822233     0.11100
H961        H  0.55955668  0.84222609  0.60365138     0.10700
H962        H  0.57780679  0.80139413  0.56733924     0.11800
H963        H  0.63485916  0.90146061  0.63926798     0.11900
H964        H  0.54840131  0.88150194  0.63545685     0.13800
H965        H  0.51796673  0.89805112  0.68352339     0.10300
H966        H  0.51432519  0.93643268  0.72459536     0.12400
H967        H  0.61274860  0.99128262  0.69057790     0.09000
H968        H  0.61617795  0.95373092  0.64976027     0.11800
C969        C  0.59600558  0.19003855  0.93907173    -0.02800
C970        C  0.62428233  0.17553066  0.92104099    -0.05400
C971        C  0.61311857  0.15432193  0.89878972    -0.20500
C972        C  0.57358402  0.14638518  0.89450591     0.25200
C973        C  0.54516793  0.16021686  0.91288151    -0.18100
C974        C  0.55628052  0.18215110  0.93480663    -0.08000
C975        C  0.56322053  0.12496497  0.86977923    -0.18300
C976        C  0.53468948  0.10180764  0.87042057    -0.23100
C977        C  0.53088685  0.07782467  0.84643535     0.27300
C978        C  0.53402976  0.04356993  0.85184016    -0.19900
C979        C  0.53924618  0.02116211  0.82912936    -0.09500
C980        C  0.53976977  0.03253023  0.80068367    -0.10100
C981        C  0.53339309  0.06645412  0.79526792    -0.03000
C982        C  0.52917534  0.08897946  0.81795655    -0.18100
H983        H  0.65504897  0.18120757  0.92370860     0.11000
H984        H  0.63550441  0.14399491  0.88484222     0.11100
H985        H  0.51440883  0.15484141  0.90980734     0.10700
H986        H  0.53384384  0.19290910  0.94844621     0.11800
H987        H  0.58241016  0.12607442  0.85110838     0.11900
H988        H  0.51804412  0.09756064  0.88999359     0.13800
H989        H  0.53567130  0.03450313  0.87365117     0.10300
H990        H  0.54525280  0.99524323  0.83381249     0.12400
H991        H  0.53508081  0.07608305  0.77372628     0.09000
H992        H  0.52675517  0.11533975  0.81333121     0.11800
loop_ 
_geom_bond_atom_site_label_1 
_geom_bond_atom_site_label_2 
_geom_bond_distance 
_geom_bond_site_symmetry_2 
_ccdc_geom_bond_type 
N1            C5   1.356   1_565  A
N1            C2   1.357       .  A
N1            N8   1.410   1_455  S
C2            C3   1.384       .  A
C2          C460   1.482       .  S
C3            C4   1.375   1_565  A
C3            H6   1.082       .  S
C4            C5   1.381       .  A
C4            H7   1.082       .  S
C5          C484   1.475       .  S
N8          C508   1.355       .  A
N8          C505   1.355   1_565  A
C9          N504   1.355   1_545  A
C9           C10   1.383       .  A
C9          C412   1.477       .  S
C10          C11   1.375   1_545  A
C10          H13   1.082       .  S
C11          C12   1.382       .  A
C11          H14   1.082       .  S
C12         N504   1.355       .  A
C12         C436   1.475       .  S
O15         Ni23   1.918       .  S
O15          C25   1.281       .  A
O16         Ni23   1.916       .  S
O16          C26   1.282       .  A
O17         Ni23   1.918       .  S
O17          C27   1.281       .  A
O18         Ni23   1.920       .  S
O18          C28   1.283       .  A
O19         Ni24   1.915       .  S
O19          C28   1.281       .  A
O20         Ni24   1.917       .  S
O20          C27   1.282       .  A
O21         Ni24   1.926       .  S
O21          C26   1.283       .  A
O22         Ni24   1.922       .  S
O22          C25   1.283       .  A
Ni23        Ni24   2.386       .  S
C25         C377   1.481       .  S
C26         C449   1.486       .  S
C27         C353   1.482       .  S
C28         C329   1.482       .  S
N29          C33   1.357       .  A
N29          C30   1.356       .  A
N29          N36   1.412       .  S
C30          C31   1.382       .  A
C30         C364   1.475       .  S
C31          C32   1.373       .  A
C31          H34   1.082       .  S
C32          C33   1.382       .  A
C32          H35   1.082       .  S
C33         C316   1.477       .  S
N36          C40   1.360       .  A
N36          C37   1.357       .  A
C37          C38   1.381       .  A
C37         C292   1.477       .  S
C38          C39   1.374       .  A
C38          H41   1.082       .  S
C39          C40   1.383       .  A
C39          H42   1.082       .  S
C40         C257   1.483       .  S
O43         Ni51   1.926   1_556  S
O43          C53   1.283       .  A
O44         Ni51   1.924       .  S
O44          C54   1.284       .  A
O45         Ni51   1.925   1_556  S
O45          C55   1.283       .  A
O46         Ni51   1.926       .  S
O46          C56   1.283       .  A
O47         Ni52   1.917   1_554  S
O47          C56   1.282       .  A
O48         Ni52   1.916       .  S
O48          C55   1.281       .  A
O49         Ni52   1.927   1_554  S
O49          C54   1.282       .  A
O50         Ni52   1.921       .  S
O50          C53   1.283       .  A
Ni51        Ni52   2.384   1_554  S
C53         C281   1.488       .  S
C54         C209   1.490       .  S
C55         C425   1.485       .  S
C56         C244   1.487       .  S
N57          C61   1.354       .  A
N57          C58   1.355       .  A
N57          N64   1.410       .  S
C58          C59   1.384       .  A
C58         C196   1.478       .  S
C59          C60   1.375       .  A
C59          H62   1.082       .  S
C60          C61   1.381       .  A
C60          H63   1.082       .  S
C61         C388   1.470       .  S
N64          C68   1.358       .  A
N64          C65   1.355       .  A
C65          C66   1.380       .  A
C65         C233   1.473       .  S
C66          C67   1.374       .  A
C66          H69   1.082       .  S
C67          C68   1.384       .  A
C67          H70   1.082       .  S
C68         C161   1.483       .  S
O71         Ni79   1.934       .  S
O71          C81   1.284       .  A
O72         Ni79   1.931       .  S
O72          C82   1.285       .  A
O73         Ni79   1.919       .  S
O73          C83   1.282       .  A
O74         Ni79   1.918       .  S
O74          C84   1.281       .  A
O75         Ni80   1.927       .  S
O75          C84   1.284       .  A
O76         Ni80   1.927       .  S
O76          C83   1.283       .  A
O77         Ni80   1.910       .  S
O77          C82   1.280       .  A
O78         Ni80   1.908       .  S
O78          C81   1.280       .  A
Ni79        Ni80   2.384       .  S
C81         C401   1.486       .  S
C82         C172   1.486       .  S
C83         C268   1.488       .  S
C84         C137   1.486       .  S
O85         Ni93   1.923       .  S
O85          C95   1.282       .  A
O86         Ni93   1.928   1_556  S
O86          C96   1.285       .  A
O87         Ni93   1.919   1_556  S
O87          C97   1.281       .  A
O88         Ni93   1.913       .  S
O88          C98   1.281       .  A
O89         Ni94   1.925       .  S
O89          C98   1.283       .  A
O90         Ni94   1.924   1_556  S
O90          C97   1.284       .  A
O91         Ni94   1.918   1_556  S
O91          C96   1.281       .  A
O92         Ni94   1.918       .  S
O92          C95   1.282       .  A
Ni93        Ni94   2.386       .  S
C95         C113   1.483       .  S
C96         C305   1.488       .  S
C97         C473   1.483       .  S
C98         C185   1.483       .  S
N99         C103   1.355       .  A
N99         C100   1.354   1_565  A
N99         N106   1.411       .  S
C100        C101   1.382       .  A
C100        C124   1.473       .  S
C101        C102   1.375   1_545  A
C101        H104   1.082       .  S
C102        C103   1.383       .  A
C102        H105   1.082       .  S
C103        C340   1.476       .  S
N106        C606   1.358   1_455  A
N106        C603   1.358   1_465  A
C107        N602   1.358   1_545  A
C107        C108   1.382       .  A
C107        C148   1.480       .  S
C108        C109   1.374   1_545  A
C108        H111   1.082       .  S
C109        C110   1.383       .  A
C109        H112   1.082       .  S
C110        N602   1.358       .  A
C110        C220   1.483       .  S
C113        C114   1.407       .  A
C113        C118   1.405       .  A
C114        C115   1.402       .  A
C114        H127   1.083       .  S
C115        C116   1.404       .  A
C115        H128   1.083       .  S
C116        C117   1.407       .  A
C116        C119   1.488       .  S
C117        C118   1.397       .  A
C117        H129   1.082       .  S
C118        H130   1.083       .  S
C119        C120   1.349       .  D
C119        H131   1.083       .  S
C120        C121   1.491       .  S
C120        H132   1.087       .  S
C121        C122   1.405       .  A
C121        C126   1.411       .  A
C122        C123   1.395       .  A
C122        H133   1.083       .  S
C123        C124   1.400       .  A
C123        H134   1.084   1_545  S
C124        C125   1.402       .  A
C125        C126   1.403       .  A
C125        H135   1.083       .  S
C126        H136   1.080       .  S
C137        C138   1.408       .  A
C137        C142   1.406       .  A
C138        C139   1.401       .  A
C138        H151   1.083       .  S
C139        C140   1.403       .  A
C139        H648   1.083       .  S
C140        C141   1.408       .  A
C140        C143   1.489       .  S
C141        C142   1.400       .  A
C141        H153   1.083       .  S
C142        H154   1.083       .  S
C143        C144   1.348       .  D
C143        H155   1.083       .  S
C144        C145   1.494       .  S
C144        H156   1.087       .  S
C145        C146   1.404       .  A
C145        C150   1.413       .  A
C146        C147   1.395       .  A
C146        H157   1.083       .  S
C147        C148   1.402       .  A
C147        H158   1.084   1_545  S
C148        C645   1.403       .  A
C149        C644   1.403       .  A
C149        C646   1.406       .  A
C149        H159   1.083       .  S
C150        C645   1.406       .  A
C150        H656   1.080       .  S
H152        C635   1.083       .  S
H160        C646   1.080       .  S
C161        C162   1.404       .  A
C161        C166   1.405       .  A
C162        C163   1.404       .  A
C162        H175   1.082       .  S
C163        C164   1.408       .  A
C163        H176   1.083       .  S
C164        C165   1.406       .  A
C164        C167   1.492       .  S
C165        C166   1.395       .  A
C165        H177   1.082       .  S
C166        H178   1.083       .  S
C167        C168   1.354       .  D
C167        H179   1.082       .  S
C168        C169   1.495       .  S
C168        H180   1.085       .  S
C169        C170   1.408       .  A
C169        C174   1.408       .  A
C170        C171   1.401       .  A
C170        H181   1.083       .  S
C171        C172   1.404       .  A
C171        H182   1.083       .  S
C172        C173   1.407       .  A
C173        C174   1.399       .  A
C173        H183   1.083       .  S
C174        H184   1.079       .  S
C185        C186   1.404       .  A
C185        C190   1.406       .  A
C186        C187   1.395       .  A
C186        H199   1.083       .  S
C187        C188   1.404       .  A
C187        H200   1.084       .  S
C188        C189   1.410       .  A
C188        C191   1.491       .  S
C189        C190   1.403       .  A
C189        H201   1.080       .  S
C190        H202   1.083       .  S
C191        C192   1.351       .  D
C191        H203   1.085       .  S
C192        C193   1.490       .  S
C192        H204   1.083       .  S
C193        C194   1.407       .  A
C193        C198   1.407       .  A
C194        C195   1.404       .  A
C194        H205   1.083       .  S
C195        C196   1.403       .  A
C195        H206   1.083       .  S
C196        C197   1.403       .  A
C197        C198   1.394       .  A
C197        H207   1.083       .  S
C198        H208   1.082       .  S
C209        C210   1.403       .  A
C209        C214   1.410       .  A
C210        C211   1.396       .  A
C210        H223   1.083       .  S
C211        C212   1.405       .  A
C211        H224   1.084       .  S
C212        C213   1.409       .  A
C212        C215   1.494       .  S
C213        C214   1.408       .  A
C213        H225   1.081       .  S
C214        H226   1.083       .  S
C215        C216   1.353       .  D
C215        H227   1.086       .  S
C216        C217   1.496       .  S
C216        H228   1.085       .  S
C217        C222   1.407       .  A
C217        C714   1.408       .  A
C218        C219   1.407       .  A
C218        C713   1.408       .  A
C218        H229   1.083       .  S
C219        C716   1.405       .  A
C219        H230   1.082       .  S
C220        C221   1.403       .  A
C220        C715   1.405       .  A
C221        C222   1.395       .  A
C221        H231   1.084       .  S
C222        H232   1.082       .  S
C233        C234   1.402       .  A
C233        C238   1.402       .  A
C234        C235   1.401       .  A
C234        H247   1.080       .  S
C235        C236   1.404       .  A
C235        H248   1.083       .  S
C236        C237   1.408       .  A
C236        C239   1.490       .  S
C237        C238   1.398       .  A
C237        H249   1.083       .  S
C238        H250   1.084       .  S
C239        C240   1.349       .  D
C239        H251   1.085       .  S
C240        C241   1.490       .  S
C240        H252   1.087       .  S
C241        C242   1.403       .  A
C241        C246   1.409       .  A
C242        C243   1.395       .  A
C242        H253   1.084       .  S
C243        C244   1.404       .  A
C243        H254   1.083       .  S
C244        C245   1.409       .  A
C245        C246   1.406       .  A
C245        H255   1.083       .  S
C246        H256   1.081       .  S
C257        C258   1.403       .  A
C257        C262   1.404       .  A
C258        C259   1.406       .  A
C258        H271   1.083       .  S
C259        C260   1.408       .  A
C259        H272   1.083       .  S
C260        C261   1.408       .  A
C260        C263   1.496       .  S
C261        C262   1.396       .  A
C261        H273   1.081       .  S
C262        H274   1.083       .  S
C263        C264   1.353       .  D
C263        H275   1.084       .  S
C264        C265   1.493       .  S
C264        H276   1.085       .  S
C265        C266   1.405       .  A
C265        C270   1.409       .  A
C266        C267   1.397       .  A
C266        H277   1.084       .  S
C267        C268   1.405       .  A
C267        H278   1.083       .  S
C268        C269   1.408       .  A
C269        C270   1.405       .  A
C269        H279   1.083       .  S
C270        H280   1.081       .  S
C281        C282   1.407       .  A
C281        C286   1.407       .  A
C282        C283   1.403       .  A
C282        H295   1.083       .  S
C283        C284   1.404       .  A
C283        H296   1.083       .  S
C284        C285   1.408       .  A
C284        C287   1.491       .  S
C285        C286   1.400       .  A
C285        H297   1.082       .  S
C286        H298   1.083       .  S
C287        C288   1.349       .  D
C287        H299   1.083       .  S
C288        C289   1.495       .  S
C288        H300   1.087       .  S
C289        C290   1.405       .  A
C289        C294   1.413       .  A
C290        C291   1.395       .  A
C290        H301   1.083       .  S
C291        C292   1.401       .  A
C291        H302   1.084       .  S
C292        C293   1.402       .  A
C293        C294   1.405       .  A
C293        H303   1.082       .  S
C294        H304   1.080       .  S
C305        C306   1.404       .  A
C305        C310   1.409       .  A
C306        C307   1.398       .  A
C306        H319   1.083       .  S
C307        C308   1.406       .  A
C307        H320   1.083       .  S
C308        C309   1.409       .  A
C308        C311   1.495       .  S
C309        C310   1.404       .  A
C309        H321   1.080       .  S
C310        H322   1.083       .  S
C311        C312   1.353       .  D
C311        H323   1.085       .  S
C312        C313   1.493       .  S
C312        H324   1.083       .  S
C313        C314   1.408       .  A
C313        C318   1.407       .  A
C314        C315   1.405       .  A
C314        H325   1.083       .  S
C315        C316   1.402       .  A
C315        H326   1.083       .  S
C316        C317   1.403       .  A
C317        C318   1.395       .  A
C317        H327   1.084       .  S
C318        H328   1.082       .  S
C329        C330   1.404       .  A
C329        C334   1.407       .  A
C330        C331   1.396       .  A
C330        H343   1.083       .  S
C331        C332   1.405       .  A
C331        H344   1.084       .  S
C332        C333   1.408       .  A
C332        C335   1.489       .  S
C333        C334   1.400       .  A
C333        H345   1.081       .  S
C334        H346   1.083       .  S
C335        C336   1.351       .  D
C335        H347   1.085       .  S
C336        C337   1.489       .  S
C336        H348   1.084       .  S
C337        C338   1.406       .  A
C337        C342   1.407       .  A
C338        C339   1.403       .  A
C338        H349   1.083       .  S
C339        C340   1.402       .  A
C339        H350   1.082       .  S
C340        C341   1.402       .  A
C341        C342   1.395       .  A
C341        H351   1.084       .  S
C342        H352   1.082       .  S
C353        C354   1.404       .  A
C353        C358   1.407       .  A
C354        C355   1.395       .  A
C354        H367   1.083       .  S
C355        C356   1.405       .  A
C355        H368   1.084       .  S
C356        C357   1.409       .  A
C356        C359   1.490       .  S
C357        C358   1.401       .  A
C357        H369   1.080       .  S
C358        H370   1.083       .  S
C359        C360   1.350       .  D
C359        H371   1.086       .  S
C360        C361   1.488       .  S
C360        H372   1.083       .  S
C361        C362   1.405       .  A
C361        C366   1.407       .  A
C362        C363   1.401       .  A
C362        H373   1.083       .  S
C363        C364   1.402       .  A
C363        H374   1.082       .  S
C364        C365   1.402       .  A
C365        C366   1.395       .  A
C365        H375   1.084       .  S
C366        H376   1.082       .  S
C377        C378   1.403       .  A
C377        C382   1.407       .  A
C378        C379   1.396       .  A
C378        H391   1.083       .  S
C379        C380   1.404       .  A
C379        H392   1.084       .  S
C380        C381   1.407       .  A
C380        C383   1.485       .  S
C381        C382   1.402       .  A
C381        H393   1.082       .  S
C382        H394   1.083       .  S
C383        C384   1.348       .  D
C383        H395   1.087       .  S
C384        C385   1.485       .  S
C384        H396   1.085       .  S
C385        C386   1.404       .  A
C385        C390   1.406       .  A
C386        C387   1.401       .  A
C386        H397   1.083       .  S
C387        C388   1.402       .  A
C387        H398   1.083       .  S
C388        C389   1.402       .  A
C389        C390   1.396       .  A
C389        H399   1.082       .  S
C390        H400   1.083       .  S
C401        C402   1.405       .  A
C401        C406   1.408       .  A
C402        C403   1.393       .  A
C402        H415   1.083       .  S
C403        C404   1.402       .  A
C403        H416   1.084       .  S
C404        C405   1.409       .  A
C404        C407   1.488       .  S
C405        C406   1.406       .  A
C405        H417   1.081       .  S
C406        H418   1.083       .  S
C407        C408   1.349       .  D
C407        H419   1.086       .  S
C408        C409   1.490       .  S
C408        H916   1.084       .  S
C409        C414   1.408       .  A
C409        C906   1.404       .  A
C410        C411   1.401       .  A
C410        C905   1.404       .  A
C410        H421   1.083       .  S
C411        C908   1.402       .  A
C411        H422   1.077       .  S
C412        C413   1.401       .  A
C412        C907   1.402       .  A
C413        C414   1.395       .  A
C413        H423   1.083   1_545  S
C414        H424   1.082       .  S
H420        C904   1.084       .  S
C425        C426   1.407       .  A
C425        C430   1.406       .  A
C426        C427   1.398       .  A
C426        H439   1.083       .  S
C427        C428   1.401       .  A
C427        H440   1.083       .  S
C428        C429   1.408       .  A
C428        C431   1.485       .  S
C429        C430   1.401       .  A
C429        H441   1.082       .  S
C430        H442   1.083       .  S
C431        C432   1.347       .  D
C431        H443   1.084       .  S
C432        C433   1.489       .  S
C432        H444   1.086       .  S
C433        C434   1.403       .  A
C433        C438   1.412       .  A
C434        C435   1.395       .  A
C434        H445   1.083       .  S
C435        C436   1.402       .  A
C435        H446   1.083   1_565  S
C436        C437   1.402       .  A
C437        C438   1.402       .  A
C437        H943   1.083       .  S
C438        H448   1.081       .  S
H447        C933   1.083   1_455  S
C449        C450   1.404       .  A
C449        C454   1.407       .  A
C450        C451   1.396       .  A
C450        H463   1.083       .  S
C451        C452   1.405       .  A
C451        H464   1.084       .  S
C452        C453   1.410       .  A
C452        C455   1.493       .  S
C453        C454   1.404       .  A
C453        H465   1.080       .  S
C454        H466   1.083       .  S
C455        C456   1.352       .  D
C455        H467   1.086       .  S
C456        C457   1.492       .  S
C456        H468   1.083       .  S
C457        C458   1.407       .  A
C457        C462   1.406       .  A
C458        C459   1.405       .  A
C458        H469   1.083       .  S
C459        C460   1.404       .  A
C459        H470   1.082       .  S
C460        C461   1.403       .  A
C461        C462   1.395       .  A
C461        H471   1.083       .  S
C462        H472   1.082       .  S
C473        C474   1.404       .  A
C473        C478   1.409       .  A
C474        C475   1.397       .  A
C474        H487   1.083       .  S
C475        C476   1.403       .  A
C475        H488   1.083       .  S
C476        C477   1.405       .  A
C476        C479   1.483       .  S
C477        C478   1.403       .  A
C477        H489   1.083       .  S
C478        H490   1.083       .  S
C479        C480   1.346       .  D
C479        H491   1.088       .  S
C480        C481   1.482       .  S
C480        H492   1.086       .  S
C481        C482   1.402       .  A
C481        C486   1.404       .  A
C482        C483   1.400       .  A
C482        H493   1.083       .  S
C483        C484   1.404       .  A
C483        H494   1.083   1_545  S
C484        C485   1.403       .  A
C485        C486   1.399       .  A
C485        H495   1.078       .  S
C486        H496   1.083       .  S
N497        C501   1.356   1_565  A
N497        C498   1.357       .  A
N497        N504   1.410       .  S
C498        C499   1.384       .  A
C498        C956   1.482       .  S
C499        C500   1.375   1_565  A
C499        H502   1.082       .  S
C500        C501   1.381       .  A
C500        H503   1.082       .  S
C501        C980   1.475       .  S
C505        C506   1.383       .  A
C505        C908   1.477   1_655  S
C506        C507   1.375   1_545  A
C506        H509   1.082       .  S
C507        C508   1.382       .  A
C507        H510   1.082       .  S
C508        C932   1.475       .  S
O511       Ni519   1.918       .  S
O511        C521   1.281       .  A
O512       Ni519   1.916       .  S
O512        C522   1.282       .  A
O513       Ni519   1.918       .  S
O513        C523   1.281       .  A
O514       Ni519   1.920       .  S
O514        C524   1.283       .  A
O515       Ni520   1.915       .  S
O515        C524   1.281       .  A
O516       Ni520   1.917       .  S
O516        C523   1.282       .  A
O517       Ni520   1.926       .  S
O517        C522   1.283       .  A
O518       Ni520   1.922       .  S
O518        C521   1.283       .  A
Ni519      Ni520   2.386       .  S
C521        C873   1.481       .  S
C522        C945   1.486       .  S
C523        C849   1.482       .  S
C524        C825   1.482       .  S
N525        C529   1.357       .  A
N525        C526   1.356       .  A
N525        N532   1.412       .  S
C526        C527   1.382       .  A
C526        C860   1.475       .  S
C527        C528   1.373       .  A
C527        H530   1.082       .  S
C528        C529   1.382       .  A
C528        H531   1.082       .  S
C529        C812   1.477       .  S
N532        C536   1.360       .  A
N532        C533   1.357       .  A
C533        C534   1.381       .  A
C533        C788   1.477       .  S
C534        C535   1.374       .  A
C534        H537   1.082       .  S
C535        C536   1.383       .  A
C535        H538   1.082       .  S
C536        C753   1.483       .  S
O539       Ni547   1.926   1_556  S
O539        C549   1.283       .  A
O540       Ni547   1.924       .  S
O540        C550   1.284       .  A
O541       Ni547   1.925   1_556  S
O541        C551   1.283       .  A
O542       Ni547   1.926       .  S
O542        C552   1.283       .  A
O543       Ni548   1.917   1_554  S
O543        C552   1.282       .  A
O544       Ni548   1.916       .  S
O544        C551   1.281       .  A
O545       Ni548   1.927   1_554  S
O545        C550   1.282       .  A
O546       Ni548   1.921       .  S
O546        C549   1.283       .  A
Ni547      Ni548   2.384   1_554  S
C549        C777   1.488       .  S
C550        C705   1.490       .  S
C551        C921   1.485       .  S
C552        C740   1.487       .  S
N553        C557   1.354       .  A
N553        C554   1.355       .  A
N553        N560   1.410       .  S
C554        C555   1.384       .  A
C554        C692   1.478       .  S
C555        C556   1.375       .  A
C555        H558   1.082       .  S
C556        C557   1.381       .  A
C556        H559   1.082       .  S
C557        C884   1.470       .  S
N560        C564   1.358       .  A
N560        C561   1.355       .  A
C561        C562   1.380       .  A
C561        C729   1.473       .  S
C562        C563   1.374       .  A
C562        H565   1.082       .  S
C563        C564   1.384       .  A
C563        H566   1.082       .  S
C564        C657   1.483       .  S
O567       Ni575   1.934       .  S
O567        C577   1.284       .  A
O568       Ni575   1.931       .  S
O568        C578   1.285       .  A
O569       Ni575   1.919       .  S
O569        C579   1.282       .  A
O570       Ni575   1.918       .  S
O570        C580   1.281       .  A
O571       Ni576   1.927       .  S
O571        C580   1.284       .  A
O572       Ni576   1.927       .  S
O572        C579   1.283       .  A
O573       Ni576   1.910       .  S
O573        C578   1.280       .  A
O574       Ni576   1.908       .  S
O574        C577   1.280       .  A
Ni575      Ni576   2.384       .  S
C577        C897   1.486       .  S
C578        C668   1.486       .  S
C579        C764   1.488       .  S
C580        C633   1.486       .  S
O581       Ni589   1.923       .  S
O581        C591   1.282       .  A
O582       Ni589   1.928   1_556  S
O582        C592   1.285       .  A
O583       Ni589   1.919   1_556  S
O583        C593   1.281       .  A
O584       Ni589   1.913       .  S
O584        C594   1.281       .  A
O585       Ni590   1.925       .  S
O585        C594   1.283       .  A
O586       Ni590   1.924   1_556  S
O586        C593   1.284       .  A
O587       Ni590   1.918   1_556  S
O587        C592   1.281       .  A
O588       Ni590   1.918       .  S
O588        C591   1.282       .  A
Ni589      Ni590   2.386       .  S
C591        C609   1.483       .  S
C592        C801   1.488       .  S
C593        C969   1.483       .  S
C594        C681   1.483       .  S
N595        C599   1.355       .  A
N595        C596   1.354   1_565  A
N595        N602   1.411       .  S
C596        C597   1.382       .  A
C596        C620   1.473       .  S
C597        C598   1.375   1_545  A
C597        H600   1.082       .  S
C598        C599   1.383       .  A
C598        H601   1.082       .  S
C599        C836   1.476       .  S
C603        C604   1.382       .  A
C603        C644   1.480   1_655  S
C604        C605   1.374   1_545  A
C604        H607   1.082       .  S
C605        C606   1.383       .  A
C605        H608   1.082       .  S
C606        C716   1.483   1_655  S
C609        C610   1.407       .  A
C609        C614   1.405       .  A
C610        C611   1.402       .  A
C610        H623   1.083       .  S
C611        C612   1.404       .  A
C611        H624   1.083       .  S
C612        C613   1.407       .  A
C612        C615   1.488       .  S
C613        C614   1.397       .  A
C613        H625   1.082       .  S
C614        H626   1.083       .  S
C615        C616   1.349       .  D
C615        H627   1.083       .  S
C616        C617   1.491       .  S
C616        H628   1.087       .  S
C617        C618   1.405       .  A
C617        C622   1.411       .  A
C618        C619   1.395       .  A
C618        H629   1.083       .  S
C619        C620   1.400       .  A
C619        H630   1.084   1_545  S
C620        C621   1.402       .  A
C621        C622   1.403       .  A
C621        H631   1.083       .  S
C622        H632   1.080       .  S
C633        C634   1.408   1_655  A
C633        C638   1.406       .  A
C634        C635   1.401       .  A
C634        H647   1.083       .  S
C635        C636   1.403       .  A
C636        C637   1.408   1_455  A
C636        C639   1.489       .  S
C637        C638   1.400       .  A
C637        H649   1.083       .  S
C638        H650   1.083       .  S
C639        C640   1.348       .  D
C639        H651   1.083       .  S
C640        C641   1.494       .  S
C640        H652   1.087   1_455  S
C641        C642   1.404   1_455  A
C641        C646   1.413       .  A
C642        C643   1.395       .  A
C642        H653   1.083       .  S
C643        C644   1.402   1_655  A
C643        H654   1.084   1_545  S
C645        H655   1.083       .  S
C657        C658   1.404       .  A
C657        C662   1.405       .  A
C658        C659   1.404       .  A
C658        H671   1.082       .  S
C659        C660   1.408       .  A
C659        H672   1.083       .  S
C660        C661   1.406       .  A
C660        C663   1.492       .  S
C661        C662   1.395       .  A
C661        H673   1.082       .  S
C662        H674   1.083       .  S
C663        C664   1.354       .  D
C663        H675   1.082       .  S
C664        C665   1.495       .  S
C664        H676   1.085       .  S
C665        C666   1.408       .  A
C665        C670   1.408       .  A
C666        C667   1.401       .  A
C666        H677   1.083       .  S
C667        C668   1.404       .  A
C667        H678   1.083       .  S
C668        C669   1.407       .  A
C669        C670   1.399       .  A
C669        H679   1.083       .  S
C670        H680   1.079       .  S
C681        C682   1.404       .  A
C681        C686   1.406       .  A
C682        C683   1.395       .  A
C682        H695   1.083       .  S
C683        C684   1.404       .  A
C683        H696   1.084       .  S
C684        C685   1.410       .  A
C684        C687   1.491       .  S
C685        C686   1.403       .  A
C685        H697   1.080       .  S
C686        H698   1.083       .  S
C687        C688   1.351       .  D
C687        H699   1.085       .  S
C688        C689   1.490       .  S
C688        H700   1.083       .  S
C689        C690   1.407       .  A
C689        C694   1.407       .  A
C690        C691   1.404       .  A
C690        H701   1.083       .  S
C691        C692   1.403       .  A
C691        H702   1.083       .  S
C692        C693   1.403       .  A
C693        C694   1.394       .  A
C693        H703   1.083       .  S
C694        H704   1.082       .  S
C705        C706   1.403       .  A
C705        C710   1.410       .  A
C706        C707   1.396       .  A
C706        H719   1.083       .  S
C707        C708   1.405       .  A
C707        H720   1.084       .  S
C708        C709   1.409       .  A
C708        C711   1.494       .  S
C709        C710   1.408       .  A
C709        H721   1.081   1_655  S
C710        H722   1.083       .  S
C711        C712   1.353   1_655  D
C711        H723   1.086       .  S
C712        C713   1.496       .  S
C712        H724   1.085       .  S
C713        C718   1.407   1_455  A
C714        C715   1.407       .  A
C714        H725   1.083       .  S
C715        H726   1.082       .  S
C716        C717   1.403   1_455  A
C717        C718   1.395       .  A
C717        H727   1.084       .  S
C718        H728   1.082       .  S
C729        C730   1.402       .  A
C729        C734   1.402       .  A
C730        C731   1.401       .  A
C730        H743   1.080       .  S
C731        C732   1.404       .  A
C731        H744   1.083       .  S
C732        C733   1.408       .  A
C732        C735   1.490       .  S
C733        C734   1.398       .  A
C733        H745   1.083       .  S
C734        H746   1.084       .  S
C735        C736   1.349       .  D
C735        H747   1.085       .  S
C736        C737   1.490       .  S
C736        H748   1.087       .  S
C737        C738   1.403       .  A
C737        C742   1.409       .  A
C738        C739   1.395       .  A
C738        H749   1.084       .  S
C739        C740   1.404       .  A
C739        H750   1.083       .  S
C740        C741   1.409       .  A
C741        C742   1.406       .  A
C741        H751   1.083       .  S
C742        H752   1.081       .  S
C753        C754   1.403       .  A
C753        C758   1.404       .  A
C754        C755   1.406       .  A
C754        H767   1.083       .  S
C755        C756   1.408       .  A
C755        H768   1.083       .  S
C756        C757   1.408       .  A
C756        C759   1.496       .  S
C757        C758   1.396       .  A
C757        H769   1.081       .  S
C758        H770   1.083       .  S
C759        C760   1.353       .  D
C759        H771   1.084       .  S
C760        C761   1.493       .  S
C760        H772   1.085       .  S
C761        C762   1.405       .  A
C761        C766   1.409       .  A
C762        C763   1.397       .  A
C762        H773   1.084       .  S
C763        C764   1.405       .  A
C763        H774   1.083       .  S
C764        C765   1.408       .  A
C765        C766   1.405       .  A
C765        H775   1.083       .  S
C766        H776   1.081       .  S
C777        C778   1.407       .  A
C777        C782   1.407       .  A
C778        C779   1.403       .  A
C778        H791   1.083       .  S
C779        C780   1.404       .  A
C779        H792   1.083       .  S
C780        C781   1.408       .  A
C780        C783   1.491       .  S
C781        C782   1.400       .  A
C781        H793   1.082       .  S
C782        H794   1.083       .  S
C783        C784   1.349       .  D
C783        H795   1.083       .  S
C784        C785   1.495       .  S
C784        H796   1.087       .  S
C785        C786   1.405       .  A
C785        C790   1.413       .  A
C786        C787   1.395       .  A
C786        H797   1.083       .  S
C787        C788   1.401       .  A
C787        H798   1.084       .  S
C788        C789   1.402       .  A
C789        C790   1.405       .  A
C789        H799   1.082       .  S
C790        H800   1.080       .  S
C801        C802   1.404       .  A
C801        C806   1.409       .  A
C802        C803   1.398       .  A
C802        H815   1.083       .  S
C803        C804   1.406       .  A
C803        H816   1.083       .  S
C804        C805   1.409       .  A
C804        C807   1.495       .  S
C805        C806   1.404       .  A
C805        H817   1.080       .  S
C806        H818   1.083       .  S
C807        C808   1.353       .  D
C807        H819   1.085       .  S
C808        C809   1.493       .  S
C808        H820   1.083       .  S
C809        C810   1.408       .  A
C809        C814   1.407       .  A
C810        C811   1.405       .  A
C810        H821   1.083       .  S
C811        C812   1.402       .  A
C811        H822   1.083       .  S
C812        C813   1.403       .  A
C813        C814   1.395       .  A
C813        H823   1.084       .  S
C814        H824   1.082       .  S
C825        C826   1.404       .  A
C825        C830   1.407       .  A
C826        C827   1.396       .  A
C826        H839   1.083       .  S
C827        C828   1.405       .  A
C827        H840   1.084       .  S
C828        C829   1.408       .  A
C828        C831   1.489       .  S
C829        C830   1.400       .  A
C829        H841   1.081       .  S
C830        H842   1.083       .  S
C831        C832   1.351       .  D
C831        H843   1.085       .  S
C832        C833   1.489       .  S
C832        H844   1.084       .  S
C833        C834   1.406       .  A
C833        C838   1.407       .  A
C834        C835   1.403       .  A
C834        H845   1.083       .  S
C835        C836   1.402       .  A
C835        H846   1.082       .  S
C836        C837   1.402       .  A
C837        C838   1.395       .  A
C837        H847   1.084       .  S
C838        H848   1.082       .  S
C849        C850   1.404       .  A
C849        C854   1.407       .  A
C850        C851   1.395       .  A
C850        H863   1.083       .  S
C851        C852   1.405       .  A
C851        H864   1.084       .  S
C852        C853   1.409       .  A
C852        C855   1.490       .  S
C853        C854   1.401       .  A
C853        H865   1.080       .  S
C854        H866   1.083       .  S
C855        C856   1.350       .  D
C855        H867   1.086       .  S
C856        C857   1.488       .  S
C856        H868   1.083       .  S
C857        C858   1.405       .  A
C857        C862   1.407       .  A
C858        C859   1.401       .  A
C858        H869   1.083       .  S
C859        C860   1.402       .  A
C859        H870   1.082       .  S
C860        C861   1.402       .  A
C861        C862   1.395       .  A
C861        H871   1.084       .  S
C862        H872   1.082       .  S
C873        C874   1.403       .  A
C873        C878   1.407       .  A
C874        C875   1.396       .  A
C874        H887   1.083       .  S
C875        C876   1.404       .  A
C875        H888   1.084       .  S
C876        C877   1.407       .  A
C876        C879   1.485       .  S
C877        C878   1.402       .  A
C877        H889   1.082       .  S
C878        H890   1.083       .  S
C879        C880   1.348       .  D
C879        H891   1.087       .  S
C880        C881   1.485       .  S
C880        H892   1.085       .  S
C881        C882   1.404       .  A
C881        C886   1.406       .  A
C882        C883   1.401       .  A
C882        H893   1.083       .  S
C883        C884   1.402       .  A
C883        H894   1.083       .  S
C884        C885   1.402       .  A
C885        C886   1.396       .  A
C885        H895   1.082       .  S
C886        H896   1.083       .  S
C897        C898   1.405       .  A
C897        C902   1.408   1_655  A
C898        C899   1.393       .  A
C898        H911   1.083       .  S
C899        C900   1.402       .  A
C899        H912   1.084       .  S
C900        C901   1.409   1_655  A
C900        C903   1.488       .  S
C901        C902   1.406       .  A
C901        H913   1.081       .  S
C902        H914   1.083       .  S
C903        C904   1.349   1_655  D
C903        H915   1.086       .  S
C904        C905   1.490       .  S
C905        C910   1.408       .  A
C906        C907   1.401       .  A
C906        H917   1.083       .  S
C907        H918   1.077       .  S
C908        C909   1.401   1_455  A
C909        C910   1.395   1_655  A
C909        H919   1.083   1_545  S
C910        H920   1.082   1_455  S
C921        C922   1.407       .  A
C921        C926   1.406       .  A
C922        C923   1.398       .  A
C922        H935   1.083       .  S
C923        C924   1.401       .  A
C923        H936   1.083   1_655  S
C924        C925   1.408       .  A
C924        C927   1.485       .  S
C925        C926   1.401       .  A
C925        H937   1.082       .  S
C926        H938   1.083       .  S
C927        C928   1.347       .  D
C927        H939   1.084       .  S
C928        C929   1.489       .  S
C928        H940   1.086       .  S
C929        C930   1.403       .  A
C929        C934   1.412       .  A
C930        C931   1.395       .  A
C930        H941   1.083       .  S
C931        C932   1.402       .  A
C931        H942   1.083   1_565  S
C932        C933   1.402       .  A
C933        C934   1.402       .  A
C934        H944   1.081   1_655  S
C945        C946   1.404       .  A
C945        C950   1.407       .  A
C946        C947   1.396       .  A
C946        H959   1.083       .  S
C947        C948   1.405       .  A
C947        H960   1.084       .  S
C948        C949   1.410       .  A
C948        C951   1.493       .  S
C949        C950   1.404       .  A
C949        H961   1.080       .  S
C950        H962   1.083       .  S
C951        C952   1.352       .  D
C951        H963   1.086       .  S
C952        C953   1.492       .  S
C952        H964   1.083       .  S
C953        C954   1.407       .  A
C953        C958   1.406       .  A
C954        C955   1.405       .  A
C954        H965   1.083       .  S
C955        C956   1.404       .  A
C955        H966   1.082       .  S
C956        C957   1.403       .  A
C957        C958   1.395       .  A
C957        H967   1.083       .  S
C958        H968   1.082       .  S
C969        C970   1.404       .  A
C969        C974   1.409       .  A
C970        C971   1.397       .  A
C970        H983   1.083       .  S
C971        C972   1.403       .  A
C971        H984   1.083       .  S
C972        C973   1.405       .  A
C972        C975   1.483       .  S
C973        C974   1.403       .  A
C973        H985   1.083       .  S
C974        H986   1.083       .  S
C975        C976   1.346       .  D
C975        H987   1.088       .  S
C976        C977   1.482       .  S
C976        H988   1.086       .  S
C977        C978   1.402       .  A
C977        C982   1.404       .  A
C978        C979   1.400       .  A
C978        H989   1.083       .  S
C979        C980   1.404       .  A
C979        H990   1.083   1_545  S
C980        C981   1.403       .  A
C981        C982   1.399       .  A
C981        H991   1.078       .  S
C982        H992   1.083       .  S
