geometry optimzed in LAMMPS
_audit_creation_date              2020-11-30 
_audit_creation_method            'lammps2cif' 
_symmetry_space_group_name_H-M    'P1' 
_symmetry_Int_Tables_number       1 
_symmetry_cell_setting            triclinic 
loop_ 
_symmetry_equiv_pos_as_xyz 
  x,y,z 
_cell_length_a                    44.20101644 
_cell_length_b                    44.251790209550535 
_cell_length_c                    32.009794403077734 
_cell_angle_alpha                 90.49157245257834 
_cell_angle_beta                  89.5083043451972 
_cell_angle_gamma                 119.89863662013774 
loop_ 
_atom_site_label 
_atom_site_type_symbol 
_atom_site_fract_x 
_atom_site_fract_y 
_atom_site_fract_z 
_atom_site_charge 
Fe1        Fe  0.19895016  0.74715995  0.16092002     1.65800
Fe2        Fe  0.24510673  0.79322070  0.24485330     1.73200
Fe3        Fe  0.18615475  0.81098565  0.20146316     1.54400
O4          O  0.18360394  0.81165608  0.13606866    -0.81100
O5          O  0.21056237  0.78606243  0.29194903    -0.79400
O6          O  0.20658265  0.78015618  0.11199788    -0.83600
O7          O  0.14577338  0.73057324  0.16227453    -0.78500
O8          O  0.23264611  0.85705395  0.19890764    -0.80200
O9          O  0.23221474  0.74141708  0.25115124    -0.83000
C10         C  0.12588481  0.73924806  0.18139827     0.97800
C11         C  0.19453735  0.80048930  0.10608479     1.05200
O12         O  0.21003465  0.78374311  0.20228866    -1.12000
O13         O  0.28216843  0.80081612  0.20093438    -0.74400
O14         O  0.25089037  0.75925639  0.15443075    -0.77900
O15         O  0.13799990  0.76684274  0.20344223    -0.78600
C16         C  0.28003938  0.78189459  0.16984853     0.96700
O17         O  0.19018236  0.71049905  0.20574800    -0.76500
O18         O  0.26381232  0.84667967  0.24482128    -0.81700
C19         C  0.19333997  0.80165685  0.29712856     0.99300
C20         C  0.25873502  0.86752583  0.22277545     1.05200
O21         O  0.18518317  0.81480263  0.26696383    -0.77400
C22         C  0.20926803  0.71235400  0.23617586     1.03500
Fe23       Fe  0.20786692  0.75110455  0.66308205     1.65800
Fe24       Fe  0.25078377  0.80006188  0.74628591     1.73200
Fe25       Fe  0.18925452  0.81191519  0.69978095     1.54400
O26         O  0.18976985  0.81259156  0.63374520    -0.81100
O27         O  0.21454658  0.78968858  0.79204313    -0.79400
O28         O  0.21563695  0.78281951  0.61365809    -0.83600
O29         O  0.15399613  0.73121961  0.66078731    -0.78500
O30         O  0.23433061  0.85968572  0.69790866    -0.80200
O31         O  0.24263897  0.74950506  0.75244841    -0.83000
C32         C  0.13242473  0.73814777  0.67897894     0.97800
C33         C  0.20364280  0.80270001  0.60549712     1.05200
O34         O  0.21565488  0.78753079  0.70307680    -1.12000
O35         O  0.28888026  0.81155033  0.70274079    -0.74400
O36         O  0.26094828  0.76642561  0.65984700    -0.77900
O37         O  0.14204553  0.76568962  0.70053127    -0.78600
C38         C  0.28912390  0.79181957  0.67416877     0.96700
O39         O  0.19946069  0.71630293  0.70938485    -0.76500
O40         O  0.26539266  0.85260966  0.74665338    -0.81700
C41         C  0.19504626  0.80293818  0.79651735     0.99300
C42         C  0.25981771  0.87220156  0.72290238     1.05200
O43         O  0.18604999  0.81496444  0.76571286    -0.77400
C44         C  0.22055400  0.71976587  0.73787828     1.03500
Fe45       Fe  0.20499950  0.45762618  0.41395242     1.65800
Fe46       Fe  0.25094270  0.45476582  0.32982848     1.73200
Fe47       Fe  0.18756428  0.37877839  0.37397325     1.54400
O48         O  0.18876837  0.37688768  0.43934562    -0.81100
O49         O  0.21936694  0.42522257  0.28167404    -0.79400
O50         O  0.21081184  0.43141559  0.46303311    -0.83600
O51         O  0.15169387  0.42423402  0.41389839    -0.78500
O52         O  0.23233435  0.37493918  0.37171682    -0.80200
O53         O  0.23599532  0.49152352  0.31838206    -0.83000
C54         C  0.13001829  0.39512814  0.39794520     0.97800
C55         C  0.20022562  0.39934024  0.46882820     1.05200
O56         O  0.21440701  0.43030322  0.37241171    -1.12000
O57         O  0.28762728  0.48737926  0.37214398    -0.74400
O58         O  0.25675378  0.49553116  0.42119438    -0.77900
O59         O  0.13967060  0.37695755  0.37669526    -0.78600
C60         C  0.28566671  0.50336348  0.40410345     0.96700
O61         O  0.19848629  0.48650023  0.36863756    -0.76500
O62         O  0.27070801  0.42157708  0.33623709    -0.81700
C63         C  0.19643990  0.39337644  0.27778453     0.99300
C64         C  0.26174905  0.39266983  0.35382281     1.05200
O65         O  0.18290208  0.37308816  0.30884904    -0.77400
C66         C  0.21472125  0.49966275  0.33481124     1.03500
Fe67       Fe  0.20088420  0.45645520  0.91489844     1.65800
Fe68       Fe  0.24761092  0.45351746  0.83277500     1.73200
Fe69       Fe  0.18264039  0.37836246  0.87286694     1.54400
O70         O  0.18232803  0.37489742  0.93857266    -0.81100
O71         O  0.21424970  0.43025694  0.78382722    -0.79400
O72         O  0.20619373  0.42926142  0.96311028    -0.83600
O73         O  0.14728450  0.42325483  0.91518203    -0.78500
O74         O  0.22607170  0.37292213  0.87210357    -0.80200
O75         O  0.23927264  0.49555620  0.82810654    -0.83000
C76         C  0.12614964  0.39544540  0.89607219     0.97800
C77         C  0.19417385  0.39684622  0.96869836     1.05200
O78         O  0.21009651  0.42925641  0.87342416    -1.12000
O79         O  0.28358062  0.47850589  0.87919059    -0.74400
O80         O  0.25322473  0.49392172  0.92093132    -0.77900
O81         O  0.13615479  0.37825968  0.87381234    -0.78600
C82         C  0.28212411  0.49786456  0.90770371     0.96700
O83         O  0.19513265  0.48617103  0.86983512    -0.76500
O84         O  0.26197994  0.41545553  0.83046953    -0.81700
C85         C  0.19189463  0.39843343  0.77763620     0.99300
C86         C  0.25284080  0.38686678  0.84896335     1.05200
O87         O  0.18009248  0.37590645  0.80698134    -0.77400
C88         C  0.21732388  0.50382316  0.84177027     1.03500
Fe89       Fe  0.54383376  0.79786747  0.99270681     1.65800
Fe90       Fe  0.54243638  0.74933746  0.07413527     1.73200
Fe91       Fe  0.61936850  0.80689147  0.03049694     1.54400
O92         O  0.62215765  0.80902681  0.96478015    -0.81100
O93         O  0.56917799  0.78328697  0.12147661    -0.79400
O94         O  0.56799101  0.78999171  0.94251333    -0.83600
O95         O  0.58123431  0.85065759  0.99452826    -0.78500
O96         O  0.61735122  0.75936391  0.02723563    -0.80200
O97         O  0.50338894  0.76232019  0.08062928    -0.83000
C98         C  0.61020845  0.86920288  0.01307870     0.97800
C99         C  0.59968063  0.79938394  0.93558902     1.05200
O100        O  0.56864615  0.78489428  0.03230562    -1.12000
O101        O  0.51446758  0.71379333  0.02884957    -0.74400
O102        O  0.50350881  0.74633404  0.98564090    -0.77900
O103        O  0.62523256  0.85592422  0.03327530    -0.78600
C104        C  0.49783071  0.71675332  0.99866563     0.96700
O105        O  0.51721458  0.80728259  0.03912028    -0.76500
O106        O  0.57673709  0.72982287  0.07460605    -0.81700
C107        C  0.60195853  0.80067954  0.12652066     0.99300
C108        C  0.60242495  0.73397190  0.05218414     1.05200
O109        O  0.62348081  0.80809196  0.09619442    -0.77400
C110        C  0.49873680  0.78679941  0.06783166     1.03500
Fe111      Fe  0.54662980  0.79820765  0.49106613     1.65800
Fe112      Fe  0.54867550  0.75434823  0.57480304     1.73200
Fe113      Fe  0.62427423  0.81522654  0.53186105     1.54400
O114        O  0.62763143  0.81691619  0.46598420    -0.81100
O115        O  0.57276024  0.78976463  0.62151096    -0.79400
O116        O  0.57285220  0.79081070  0.44295165    -0.83600
O117        O  0.58137147  0.85191578  0.49103787    -0.78500
O118        O  0.62729175  0.77002720  0.53101814    -0.80200
O119        O  0.50738337  0.76418617  0.57943820    -0.83000
C120        C  0.60846885  0.87295524  0.51146585     0.97800
C121        C  0.60536672  0.80452795  0.43644464     1.05200
O122        O  0.57335173  0.78939321  0.53241990    -1.12000
O123        O  0.52351783  0.71708152  0.53016382    -0.74400
O124        O  0.50812875  0.74530198  0.48605832    -0.77900
O125        O  0.62509269  0.86218288  0.53325419    -0.78600
C126        C  0.50440547  0.71693614  0.50098160     0.96700
O127        O  0.51817856  0.80675741  0.53570311    -0.76500
O128        O  0.58600553  0.73895891  0.57754963    -0.81700
C129        C  0.60526290  0.80846764  0.62731702     0.99300
C130        C  0.61293748  0.74485963  0.55654955     1.05200
O131        O  0.62755295  0.81701049  0.59766036    -0.77400
C132        C  0.50084655  0.78712344  0.56570793     1.03500
Fe133      Fe  0.79583332  0.25342501  0.41531583     1.65800
Fe134      Fe  0.74634276  0.20944177  0.49945553     1.73200
Fe135      Fe  0.80862251  0.19180816  0.46287982     1.54400
O136        O  0.80904174  0.18490679  0.39781799    -0.81100
O137        O  0.77674564  0.21474975  0.55009535    -0.79400
O138        O  0.79121914  0.21906973  0.36920804    -0.83600
O139        O  0.84920146  0.27240925  0.42041998    -0.78500
O140        O  0.76305885  0.14450747  0.46507004    -0.80200
O141        O  0.76119478  0.26168704  0.50546646    -0.83000
C142        C  0.86894906  0.26473647  0.44081981     0.97800
C143        C  0.79913658  0.19529885  0.36647835     1.05200
O144        O  0.78368565  0.21826223  0.45929246    -1.12000
O145        O  0.71173664  0.20274702  0.45342729    -0.74400
O146        O  0.74423103  0.23976818  0.40373582    -0.77900
O147        O  0.85690520  0.23654104  0.46127049    -0.78600
C148        C  0.71471568  0.21855226  0.41962117     0.96700
O149        O  0.80127595  0.29132745  0.45693495    -0.76500
O150        O  0.72580918  0.15600884  0.49889154    -0.81700
C151        C  0.79809638  0.20422238  0.55754812     0.99300
C152        C  0.73407549  0.13463790  0.48342434     1.05200
O153        O  0.81095448  0.19408649  0.52850207    -0.77400
C154        C  0.78308524  0.29017678  0.48826584     1.03500
Fe155      Fe  0.79459254  0.25212779  0.92794869     1.63400
Fe156      Fe  0.74650245  0.20363734  0.00940585     1.73200
Fe157      Fe  0.80679277  0.18769290  0.96477545     1.54400
O158        O  0.81067929  0.18954529  0.89884996    -0.81100
O159        O  0.77966981  0.20897110  0.05662373    -0.79400
O160        O  0.78569426  0.21971902  0.87747784    -0.83600
O161        O  0.84771171  0.26757068  0.92728797    -0.78500
O162        O  0.76077429  0.14129675  0.96013379    -0.80200
O163        O  0.76053232  0.25567839  0.01857053    -0.83000
C164        C  0.86709169  0.25924602  0.94775213     0.97800
C165        C  0.79905875  0.20065903  0.86989293     1.05200
O166        O  0.78241144  0.21427504  0.96718963    -1.12000
O167        O  0.71032816  0.19803574  0.96556508    -0.74400
O168        O  0.74321579  0.24242285  0.92362485    -0.77900
O169        O  0.85425684  0.23218705  0.97008421    -0.78600
C170        C  0.71346666  0.21968965  0.93771099     0.96700
O171        O  0.80455321  0.28740260  0.97529507    -0.76500
O172        O  0.72781972  0.15003451  0.00639114    -0.81700
C173        C  0.79809148  0.19466941  0.06094150     0.99300
C174        C  0.73426522  0.13000106  0.98389023     1.05200
O175        O  0.80678780  0.18211546  0.03010189    -0.77400
C176        C  0.78499340  0.28497291  0.00573655     1.03500
Fe177      Fe  0.79130910  0.54699059  0.17740467     1.65800
Fe178      Fe  0.74326633  0.54277118  0.09406079     1.73200
Fe179      Fe  0.80024300  0.62144429  0.13589268     1.54400
O180        O  0.80164708  0.62553385  0.20137025    -0.81100
O181        O  0.77643943  0.56996459  0.04625753    -0.79400
O182        O  0.78169916  0.57181065  0.22582980    -0.83600
O183        O  0.84341339  0.58476461  0.17623600    -0.78500
O184        O  0.75244726  0.61951342  0.13636284    -0.80200
O185        O  0.75882100  0.50551365  0.08861995    -0.83000
C186        C  0.86266190  0.61282334  0.15679574     0.97800
C187        C  0.79206542  0.60391497  0.23143258     1.05200
O188        O  0.77832429  0.57050571  0.13585384    -1.12000
O189        O  0.70753937  0.51376909  0.13876234    -0.74400
O190        O  0.74095678  0.50554615  0.18370667    -0.77900
O191        O  0.84977995  0.62770454  0.13532102    -0.78600
C192        C  0.71135056  0.49765179  0.16883641     0.96700
O193        O  0.80217053  0.51986481  0.13299301    -0.76500
O194        O  0.72174604  0.57505179  0.09338484    -0.81700
C195        C  0.79403609  0.60262491  0.04048914     0.99300
C196        C  0.72590883  0.60172543  0.11353218     1.05200
O197        O  0.80227117  0.62449319  0.07041984    -0.77400
C198        C  0.78294764  0.50113539  0.10334953     1.03500
Fe199      Fe  0.79581044  0.54816906  0.67931595     1.65800
Fe200      Fe  0.74782987  0.54886563  0.59843236     1.73200
Fe201      Fe  0.81275468  0.62482256  0.63646436     1.54400
O202        O  0.81711948  0.63009707  0.70176907    -0.81100
O203        O  0.78051809  0.57146108  0.54854882    -0.79400
O204        O  0.79062687  0.57607606  0.72722248    -0.83600
O205        O  0.84985725  0.58219376  0.67650425    -0.78500
O206        O  0.76835187  0.62864702  0.64088758    -0.80200
O207        O  0.75671205  0.50685496  0.59343771    -0.83000
C208        C  0.87040178  0.60899711  0.65522119     0.97800
C209        C  0.80464569  0.60875091  0.73208660     1.05200
O210        O  0.78573882  0.57401219  0.63794572    -1.12000
O211        O  0.71242813  0.52460610  0.64548990    -0.74400
O212        O  0.74308838  0.51044730  0.68767827    -0.77900
O213        O  0.85943542  0.62508451  0.63281842    -0.78600
C214        C  0.71407865  0.50635389  0.67471123     0.96700
O215        O  0.80149690  0.51800681  0.63449678    -0.76500
O216        O  0.73307846  0.58696307  0.59746282    -0.81700
C217        C  0.79991819  0.60371058  0.54131926     0.99300
C218        C  0.74158065  0.61486436  0.61791782     1.05200
O219        O  0.81163060  0.62645087  0.57061805    -0.77400
C220        C  0.77958019  0.49985836  0.60666387     1.03500
Fe221      Fe  0.44936222  0.19823756  0.24998297     1.65800
Fe222      Fe  0.45044994  0.24795687  0.33110145     1.73200
Fe223      Fe  0.37351386  0.18680066  0.29036794     1.54400
O224        O  0.37053151  0.18294850  0.22471570    -0.81100
O225        O  0.42363929  0.21638801  0.38012564    -0.79400
O226        O  0.42503862  0.20653137  0.20057805    -0.83600
O227        O  0.41205230  0.14555366  0.25031533    -0.78500
O228        O  0.37290232  0.23273224  0.28628281    -0.80200
O229        O  0.48880061  0.23414301  0.33874154    -0.83000
C230        C  0.38458374  0.12625700  0.27133256     0.97800
C231        C  0.39256418  0.19391388  0.19466283     1.05200
O232        O  0.42440372  0.21105977  0.29046131    -1.12000
O233        O  0.47947757  0.28249762  0.28567736    -0.74400
O234        O  0.49069011  0.24890872  0.24369711    -0.77900
O235        O  0.37045909  0.13905535  0.29459748    -0.78600
C236        C  0.49744048  0.27863039  0.25739921     0.96700
O237        O  0.47545313  0.18913623  0.29656208    -0.76500
O238        O  0.41627357  0.26741400  0.32826505    -0.81700
C239        C  0.39106341  0.19761915  0.38583832     0.99300
C240        C  0.38933498  0.26071086  0.30710871     1.05200
O241        O  0.36924339  0.18731305  0.35589528    -0.77400
C242        C  0.49387631  0.20985771  0.32545628     1.03500
Fe243      Fe  0.45601865  0.20561152  0.75488559     1.65800
Fe244      Fe  0.44786427  0.25005336  0.83739342     1.73200
Fe245      Fe  0.37481005  0.18559370  0.79006516     1.54400
O246        O  0.37461185  0.18463756  0.72482469    -0.81100
O247        O  0.41766005  0.21729438  0.88385744    -0.79400
O248        O  0.42974177  0.20812877  0.70325411    -0.83600
O249        O  0.42441158  0.15173352  0.75709945    -0.78500
O250        O  0.36962473  0.22936897  0.78802619    -0.80200
O251        O  0.48600832  0.23762000  0.85207018    -0.83000
C252        C  0.39531350  0.13001226  0.77356241     0.97800
C253        C  0.39745777  0.19542718  0.69589803     1.05200
O254        O  0.42624385  0.21373364  0.79411168    -1.12000
O255        O  0.48090928  0.28735902  0.79647198    -0.74400
O256        O  0.49195368  0.25844707  0.74725795    -0.77900
O257        O  0.37549450  0.13934594  0.79137323    -0.78600
C258        C  0.49773790  0.28679111  0.76468810     0.96700
O259        O  0.48568079  0.20216097  0.80207746    -0.76500
O260        O  0.41303214  0.26766334  0.82803000    -0.81700
C261        C  0.38576385  0.19435249  0.88653875     0.99300
C262        C  0.38548554  0.25844185  0.80698155     1.05200
O263        O  0.36621681  0.18171480  0.85477673    -0.77400
C264        C  0.49687500  0.21822731  0.83648394     1.03500
C265        C  0.35669173  0.19892186  0.49460755    -0.11300
C266        C  0.37341718  0.18468751  0.51770957     0.11300
C267        C  0.39066301  0.16931887  0.49634604    -0.03100
C268        C  0.39332505  0.17164153  0.45253959    -0.05800
C269        C  0.37913170  0.18843218  0.42963255    -0.16600
C270        C  0.35967336  0.20154071  0.45067208     0.02300
C271        C  0.37584934  0.18936709  0.56401937     0.12300
C272        C  0.40723395  0.15157961  0.51978627     0.62900
H273        H  0.40799538  0.16174313  0.43579896     0.12300
C274        C  0.34437746  0.22041989  0.42717862     0.55000
H275        H  0.34305239  0.20985354  0.51153307     0.08100
C276        C  0.40112102  0.22112321  0.58266298    -0.05700
C277        C  0.40618045  0.22229959  0.62613806    -0.06500
C278        C  0.38660781  0.19309592  0.65152234    -0.16100
C279        C  0.35995581  0.16182687  0.63308837    -0.01600
C280        C  0.35484574  0.16073513  0.58951058    -0.09200
C281        C  0.42311165  0.25349240  0.55663510     0.65100
H282        H  0.42610012  0.24604652  0.64072655     0.10500
C283        C  0.33839229  0.12912093  0.65866199     0.63500
H284        H  0.33527413  0.13697590  0.57459867     0.07900
F285        F  0.37085349  0.24951118  0.40777333    -0.19600
F286        F  0.32663188  0.23130657  0.45352876    -0.15800
F287        F  0.32119036  0.19847548  0.39739166    -0.19300
F288        F  0.38174102  0.12308147  0.54109945    -0.22700
F289        F  0.43151058  0.17459972  0.54792689    -0.24100
F290        F  0.42405710  0.13988850  0.49306325    -0.18100
F291        F  0.31622323  0.10098024  0.63391946    -0.20600
F292        F  0.31821539  0.13477973  0.68741992    -0.21800
F293        F  0.36022372  0.12036312  0.67936482    -0.19000
F294        F  0.44737150  0.28095344  0.58065932    -0.19100
F295        F  0.40178537  0.26404161  0.53812344    -0.22900
F296        F  0.44097104  0.24646440  0.52593146    -0.24500
C297        C  0.34819156  0.15794637  0.08950838    -0.11300
C298        C  0.36932187  0.18593161  0.06324575     0.11300
C299        C  0.39497683  0.21791873  0.08093002    -0.03100
C300        C  0.40020177  0.21998691  0.12443005    -0.05800
C301        C  0.38064044  0.19131978  0.15067653    -0.16600
C302        C  0.35360046  0.15987976  0.13307909     0.02300
C303        C  0.36666190  0.18026762  0.01715573     0.12300
C304        C  0.41738700  0.24942413  0.05372963     0.62900
H305        H  0.42045428  0.24385967  0.13826372     0.12300
C306        C  0.33190111  0.12783863  0.15959975     0.55000
H307        H  0.32847647  0.13396236  0.07521441     0.08100
C308        C  0.38540049  0.16625270  0.99638100    -0.05700
C309        C  0.38782091  0.16793083  0.95258305    -0.06500
C310        C  0.37202465  0.18285577  0.92920050    -0.16100
C311        C  0.35043617  0.19373027  0.94958059    -0.01600
C312        C  0.34793573  0.19203361  0.99358953    -0.09200
C313        C  0.40413158  0.15107141  0.02047697     0.65100
H314        H  0.40405070  0.15964140  0.93626589     0.10500
C315        C  0.33179412  0.20875914  0.92509770     0.63500
H316        H  0.33304439  0.20179730  0.01010617     0.07900
F317        F  0.35353077  0.11874182  0.18025027    -0.19600
F318        F  0.30885970  0.09947969  0.13576544    -0.15800
F319        F  0.31262397  0.13476091  0.18836822    -0.19300
F320        F  0.39636878  0.25917601  0.03285536    -0.22700
F321        F  0.43583181  0.24147450  0.02482566    -0.24100
F322        F  0.44117541  0.27772082  0.07707317    -0.18100
F323        F  0.31244234  0.21810718  0.95086626    -0.20600
F324        F  0.30933792  0.18422867  0.89673520    -0.21800
F325        F  0.35585052  0.23812494  0.90381431    -0.19000
F326        F  0.42112147  0.13932145  0.99411380    -0.19100
F327        F  0.38026511  0.12313549  0.04399137    -0.22900
F328        F  0.42870076  0.17607771  0.04671203    -0.24500
C329        C  0.64320501  0.43638995  0.74396545    -0.11300
C330        C  0.61765036  0.41721555  0.71392032     0.11300
C331        C  0.62217087  0.42956009  0.67251041    -0.03100
C332        C  0.65388142  0.45911477  0.66153870    -0.05800
C333        C  0.68062202  0.47727279  0.69084709    -0.16600
C334        C  0.67468338  0.46665741  0.73325060     0.02300
C335        C  0.58687004  0.38358416  0.72621312     0.12300
C336        C  0.59345988  0.41171390  0.64023839     0.62900
H337        H  0.65828399  0.46789606  0.62942808     0.12300
C338        C  0.70073681  0.48754507  0.76718050     0.55000
H339        H  0.63856512  0.42692536  0.77580536     0.08100
C340        C  0.58785747  0.35211830  0.72534803    -0.05700
C341        C  0.55751232  0.32091646  0.73603903    -0.06500
C342        C  0.52687234  0.32044800  0.74923979    -0.16100
C343        C  0.52612038  0.35224762  0.75055771    -0.01600
C344        C  0.55626161  0.38329112  0.73859010    -0.09200
C345        C  0.62121001  0.35175756  0.71442593     0.65100
H346        H  0.55802653  0.29670498  0.73600172     0.10500
C347        C  0.49404705  0.35387339  0.76479664     0.63500
H348        H  0.55645328  0.40785813  0.73949241     0.07900
F349        F  0.73014661  0.48431561  0.76309265    -0.19600
F350        F  0.68689597  0.47620881  0.80669759    -0.15800
F351        F  0.71008223  0.52230204  0.76416933    -0.19300
F352        F  0.56447068  0.41359941  0.65295635    -0.22700
F353        F  0.58431312  0.37709656  0.63579000    -0.24100
F354        F  0.60367976  0.42730702  0.60144087    -0.18100
F355        F  0.49025362  0.34972672  0.80764978    -0.20600
F356        F  0.46451077  0.32797060  0.74537314    -0.21800
F357        F  0.49669321  0.38555608  0.75519120    -0.19000
F358        F  0.61631613  0.31832491  0.71445161    -0.19100
F359        F  0.64666506  0.37133075  0.74343937    -0.22900
F360        F  0.63289607  0.36568341  0.67517420    -0.24500
C361        C  0.80459525  0.64728929  0.93542097    -0.11300
C362        C  0.80916678  0.62436622  0.90911463     0.11300
C363        C  0.81361141  0.59759035  0.92663561    -0.03100
C364        C  0.81114308  0.59336577  0.97013985    -0.05800
C365        C  0.80397259  0.61454198  0.99660473    -0.16600
C366        C  0.80165528  0.64277919  0.97916397     0.02300
C367        C  0.80731508  0.62737408  0.86314868     0.12300
C368        C  0.82011518  0.57302078  0.89940426     0.62900
H369        H  0.81371727  0.57249084  0.98391373     0.12300
C370        C  0.79452595  0.66703549  0.00600200     0.55000
H371        H  0.80196792  0.66796451  0.92110589     0.08100
C372        C  0.77501517  0.61025115  0.84186617    -0.05700
C373        C  0.77531085  0.60771153  0.79808136    -0.06500
C374        C  0.80666092  0.62141887  0.77538795    -0.16100
C375        C  0.83889730  0.64081374  0.79644985    -0.01600
C376        C  0.83858197  0.64401969  0.84025787    -0.09200
C377        C  0.74049067  0.59324902  0.86545316     0.65100
H378        H  0.75099746  0.59310377  0.78129168     0.10500
C379        C  0.87342600  0.65554370  0.77324431     0.63500
H380        H  0.86287949  0.65732975  0.85733865     0.07900
F381        F  0.76352199  0.64804138  0.02771884    -0.19600
F382        F  0.79178254  0.69156906  0.98227376    -0.15800
F383        F  0.82156160  0.68473549  0.03390205    -0.19300
F384        F  0.85135166  0.59172384  0.87812383    -0.22700
F385        F  0.79342753  0.55614873  0.87088112    -0.24100
F386        F  0.82197279  0.54781636  0.92277836    -0.18100
F387        F  0.90160174  0.67331171  0.79970835    -0.20600
F388        F  0.87536105  0.67852046  0.74294258    -0.21800
F389        F  0.87616132  0.62871048  0.75456101    -0.19000
F390        F  0.71226019  0.57828404  0.83863197    -0.19100
F391        F  0.73784146  0.61797579  0.88939951    -0.22900
F392        F  0.73841137  0.56739790  0.89129214    -0.24500
C393        C  0.80166616  0.64359141  0.43546812    -0.11300
C394        C  0.80567235  0.62054296  0.40881827     0.11300
C395        C  0.81329982  0.59568533  0.42588114    -0.03100
C396        C  0.81368228  0.59279952  0.46959985    -0.05800
C397        C  0.80723524  0.61420415  0.49662757    -0.16600
C398        C  0.80219289  0.64086254  0.47932166     0.02300
C399        C  0.80013915  0.62166276  0.36318993     0.12300
C400        C  0.82047758  0.57198339  0.39792009     0.62900
H401        H  0.81783440  0.57280708  0.48315577     0.12300
C402        C  0.79526158  0.66495319  0.50667484     0.55000
H403        H  0.79659424  0.66282741  0.42147743     0.08100
C404        C  0.76700034  0.60057085  0.34483727    -0.05700
C405        C  0.76481669  0.59714331  0.30104266    -0.06500
C406        C  0.79422230  0.61584960  0.27534820    -0.16100
C407        C  0.82632055  0.64074229  0.29372641    -0.01600
C408        C  0.82887365  0.64270295  0.33766878    -0.09200
C409        C  0.73425246  0.58177392  0.37151157     0.65100
H410        H  0.74028074  0.57894462  0.28648975     0.10500
C411        C  0.85801990  0.66417479  0.26727467     0.63500
H412        H  0.85362827  0.65973166  0.35252800     0.07900
F413        F  0.76558498  0.64554567  0.53045827    -0.19600
F414        F  0.79017334  0.68821774  0.48330838    -0.15800
F415        F  0.82342857  0.68409205  0.53260986    -0.19300
F416        F  0.84905859  0.59195929  0.37268656    -0.22700
F417        F  0.79192427  0.55171413  0.37300024    -0.24100
F418        F  0.82753411  0.54984608  0.42086262    -0.18100
F419        F  0.88647599  0.68624830  0.29151820    -0.20600
F420        F  0.85033206  0.68449066  0.24178324    -0.21800
F421        F  0.86737576  0.64429642  0.24285085    -0.19000
F422        F  0.70467806  0.56321630  0.34736554    -0.19100
F423        F  0.73014172  0.60592166  0.39488828    -0.22900
F424        F  0.73669155  0.55871630  0.39821088    -0.24500
C425        C  0.62085773  0.43478630  0.20932998    -0.11300
C426        C  0.62183764  0.40360911  0.20818307     0.11300
C427        C  0.65237641  0.40349537  0.19488586    -0.03100
C428        C  0.68146876  0.43527264  0.18349439    -0.05800
C429        C  0.68050660  0.46646628  0.18459139    -0.16600
C430        C  0.65003969  0.46660561  0.19805869     0.02300
C431        C  0.59025090  0.37144997  0.22117009     0.12300
C432        C  0.65423464  0.37010750  0.19271892     0.62900
H433        H  0.70510658  0.43595554  0.17264622     0.12300
C434        C  0.64872958  0.50017940  0.20166239     0.55000
H435        H  0.59692868  0.43390365  0.21924701     0.08100
C436        C  0.58208891  0.36324747  0.26381423    -0.05700
C437        C  0.55137374  0.33247471  0.27395808    -0.06500
C438        C  0.52902574  0.31000650  0.24293345    -0.16100
C439        C  0.53719382  0.31825642  0.20023559    -0.01600
C440        C  0.56770447  0.34942170  0.19005645    -0.09200
C441        C  0.60550339  0.38703009  0.29834911     0.65100
H442        H  0.54454627  0.32555898  0.30644550     0.10500
C443        C  0.51353817  0.29479942  0.16583341     0.63500
H444        H  0.57447271  0.35678858  0.15766798     0.07900
F445        F  0.61839432  0.49489530  0.22114061    -0.19600
F446        F  0.65008736  0.51354960  0.16238444    -0.15800
F447        F  0.67672233  0.52436766  0.22496774    -0.19300
F448        F  0.62925427  0.34663557  0.16559921    -0.22700
F449        F  0.64849310  0.35530628  0.23190344    -0.24100
F450        F  0.68648722  0.37615494  0.17862867    -0.18100
F451        F  0.52423725  0.30985201  0.12682356    -0.20600
F452        F  0.47987432  0.28826705  0.17261120    -0.21800
F453        F  0.51373064  0.26365133  0.16543270    -0.19000
F454        F  0.59382073  0.37275646  0.33753844    -0.19100
F455        F  0.60622838  0.41859640  0.29722791    -0.22900
F456        F  0.63906845  0.39283807  0.29322708    -0.24500
C457        C  0.82116406  0.37912897  0.04245656    -0.11300
C458        C  0.79015168  0.37870135  0.05329311     0.11300
C459        C  0.75796653  0.34703615  0.05134351    -0.03100
C460        C  0.75786979  0.31688014  0.03713879    -0.05800
C461        C  0.78870751  0.31734623  0.02486893    -0.16600
C462        C  0.82118953  0.34876334  0.02891815     0.02300
C463        C  0.79184145  0.41195015  0.06556377     0.12300
C464        C  0.72376227  0.34514811  0.06368496     0.62900
H465        H  0.73327131  0.29279741  0.03399845     0.12300
C466        C  0.85579291  0.35034854  0.02007165     0.55000
H467        H  0.84543113  0.40371573  0.04412686     0.08100
C468        C  0.80149823  0.42616881  0.10617596    -0.05700
C469        C  0.79927468  0.45596911  0.11652011    -0.06500
C470        C  0.78746465  0.47173039  0.08776941    -0.16100
C471        C  0.77910580  0.45803347  0.04643697    -0.01600
C472        C  0.78208077  0.42864150  0.03602329    -0.09200
C473        C  0.81369330  0.40966437  0.13851379     0.65100
H474        H  0.80581148  0.46656845  0.14784578     0.10500
C475        C  0.76689980  0.47384713  0.01326870     0.63500
H476        H  0.77543220  0.41745021  0.00494747     0.07900
F477        F  0.88373221  0.38117414  0.03446601    -0.19600
F478        F  0.86018115  0.34821568  0.97755182    -0.15800
F479        F  0.85666491  0.32314390  0.03993029    -0.19300
F480        F  0.71651422  0.36482149  0.03658107    -0.22700
F481        F  0.72602001  0.35774759  0.10388300    -0.24100
F482        F  0.69601697  0.31130036  0.06249837    -0.18100
F483        F  0.76589398  0.45995620  0.97403653    -0.20600
F484        F  0.78946432  0.50939335  0.01121852    -0.21800
F485        F  0.73360080  0.46732284  0.02277637    -0.19000
F486        F  0.81955924  0.42619230  0.17694383    -0.19100
F487        F  0.84456450  0.41181458  0.12534153    -0.22900
F488        F  0.78880181  0.37500811  0.14394249    -0.24500
C489        C  0.55715759  0.18708393  0.87869488    -0.11300
C490        C  0.58649444  0.21901579  0.88950146     0.11300
C491        C  0.58527794  0.25025722  0.88562596    -0.03100
C492        C  0.55469020  0.24841624  0.87014654    -0.05800
C493        C  0.52582810  0.21665993  0.85763360    -0.16600
C494        C  0.52656138  0.18524785  0.86306685     0.02300
C495        C  0.61874157  0.21900748  0.90257649     0.12300
C496        C  0.61647748  0.28549619  0.89656991     0.62900
H497        H  0.55369961  0.27216169  0.86578545     0.12300
C498        C  0.49502956  0.14993785  0.85344728     0.55000
H499        H  0.55873786  0.16355354  0.88181268     0.08100
C500        C  0.62324813  0.21033825  0.94358455    -0.05700
C501        C  0.65436261  0.21051066  0.95323345    -0.06500
C502        C  0.68122941  0.21947701  0.92353955    -0.16100
C503        C  0.67660515  0.22836647  0.88242380    -0.01600
C504        C  0.64503450  0.22728606  0.87260569    -0.09200
C505        C  0.59534590  0.20102293  0.97699073     0.65100
H506        H  0.65816052  0.20410131  0.98461466     0.10500
C507        C  0.70449873  0.23883619  0.84883239     0.63500
H508        H  0.64072117  0.23350540  0.84134753     0.07900
F509        F  0.49941653  0.12286649  0.86749191    -0.19600
F510        F  0.48955826  0.14586167  0.81083233    -0.15800
F511        F  0.46576667  0.14730706  0.87296653    -0.19300
F512        F  0.64398279  0.29263691  0.86992955    -0.22700
F513        F  0.62671939  0.28543259  0.93721442    -0.24100
F514        F  0.60889491  0.31218382  0.89301860    -0.18100
F515        F  0.69258218  0.24177149  0.81005866    -0.20600
F516        F  0.71481503  0.21408495  0.84556906    -0.21800
F517        F  0.73293599  0.27086135  0.85876416    -0.19000
F518        F  0.60582495  0.19540602  0.01539114    -0.19100
F519        F  0.56522590  0.17094470  0.96565310    -0.22900
F520        F  0.58794040  0.22774025  0.98174751    -0.24500
C521        C  0.81014110  0.17285918  0.66421193    -0.11300
C522        C  0.80799227  0.19718057  0.69068096     0.11300
C523        C  0.80824090  0.22653799  0.67307214    -0.03100
C524        C  0.80683130  0.22857898  0.62934248    -0.05800
C525        C  0.80667047  0.20313412  0.60248144    -0.16600
C526        C  0.81005384  0.17554642  0.62017806     0.02300
C527        C  0.80499091  0.19140510  0.73680206     0.12300
C528        C  0.81053989  0.25588887  0.70041731     0.62900
H529        H  0.80537497  0.25012290  0.61564802     0.12300
C530        C  0.81283032  0.14864332  0.59314210     0.55000
H531        H  0.81117466  0.15129119  0.67849197     0.08100
C532        C  0.77217495  0.17485406  0.75740983    -0.05700
C533        C  0.77119856  0.17659323  0.80139496    -0.06500
C534        C  0.80187740  0.19262474  0.82522678    -0.16100
C535        C  0.83459120  0.20544087  0.80466289    -0.01600
C536        C  0.83556504  0.20493992  0.76055704    -0.09200
C537        C  0.73843342  0.15573068  0.73288016     0.65100
H538        H  0.74639263  0.16633158  0.81754365     0.10500
C539        C  0.86841811  0.22115729  0.82899928     0.63500
H540        H  0.86033301  0.21652366  0.74413157     0.07900
F541        F  0.81532504  0.12398819  0.61690639    -0.19600
F542        F  0.84242125  0.16502897  0.56834804    -0.15800
F543        F  0.78373363  0.13134969  0.56805886    -0.19300
F544        F  0.84154203  0.27095258  0.72231127    -0.22700
F545        F  0.78306389  0.24334450  0.72849669    -0.24100
F546        F  0.80969204  0.28163305  0.67703868    -0.18100
F547        F  0.89711254  0.23165160  0.80301405    -0.20600
F548        F  0.86755418  0.19671250  0.85632401    -0.21800
F549        F  0.87276833  0.24993940  0.85122478    -0.19000
F550        F  0.70955643  0.14004990  0.75897004    -0.19100
F551        F  0.73894817  0.12999384  0.70859538    -0.22900
F552        F  0.73465600  0.17853825  0.70716000    -0.24500
C553        C  0.82228816  0.21195589  0.17536373    -0.11300
C554        C  0.80703212  0.17784901  0.19076355     0.11300
C555        C  0.79303725  0.14939725  0.16232614    -0.03100
C556        C  0.79354554  0.15622313  0.11923985    -0.05800
C557        C  0.80686573  0.19030278  0.10422633    -0.16600
C558        C  0.82281065  0.21878943  0.13246991     0.02300
C559        C  0.80369081  0.17350506  0.23701857     0.12300
C560        C  0.77643111  0.11203881  0.17745056     0.62900
H561        H  0.78126128  0.13475766  0.09719621     0.12300
C562        C  0.84061539  0.25627579  0.11739580     0.55000
H563        H  0.83272173  0.23334377  0.19762274     0.08100
C564        C  0.83290691  0.18274987  0.26294957    -0.05700
C565        C  0.82967737  0.18642197  0.30634746    -0.06500
C566        C  0.79823761  0.18102179  0.32411389    -0.16100
C567        C  0.76803876  0.16771611  0.29881045    -0.01600
C568        C  0.77146271  0.16483239  0.25542088    -0.09200
C569        C  0.86777136  0.19041573  0.24459501     0.65100
H570        H  0.85242576  0.19616993  0.32618548     0.10500
C571        C  0.73232668  0.15634928  0.31767838     0.63500
H572        H  0.74931026  0.15759417  0.23524060     0.07900
F573        F  0.85852893  0.27965566  0.14927739    -0.19600
F574        F  0.81627816  0.26419614  0.10206908    -0.15800
F575        F  0.86435043  0.26087588  0.08616908    -0.19300
F576        F  0.74609924  0.10337310  0.19928974    -0.22700
F577        F  0.79914939  0.10819887  0.20330657    -0.24100
F578        F  0.76813728  0.08877392  0.14453259    -0.18100
F579        F  0.73066224  0.18483902  0.33270381    -0.20600
F580        F  0.72616211  0.13345538  0.35008471    -0.21800
F581        F  0.70597769  0.13950203  0.28863667    -0.19000
F582        F  0.89087396  0.19331278  0.27539743    -0.19100
F583        F  0.88251164  0.22135089  0.22271153    -0.22900
F584        F  0.86321544  0.16380550  0.21782356    -0.24500
C585        C  0.75347218  0.40789064  0.57098600    -0.11300
C586        C  0.78591006  0.41210152  0.55906983     0.11300
C587        C  0.81631390  0.44525725  0.56228787    -0.03100
C588        C  0.81304004  0.47339347  0.57755013    -0.05800
C589        C  0.78055498  0.46920818  0.58960684    -0.16600
C590        C  0.75031101  0.43569558  0.58752228     0.02300
C591        C  0.78685637  0.38135260  0.54202082     0.12300
C592        C  0.85197220  0.45081570  0.54976373     0.62900
H593        H  0.83585828  0.49904295  0.57992574     0.12300
C594        C  0.71529225  0.42872197  0.60484885     0.55000
H595        H  0.73058872  0.38233571  0.56763985     0.08100
C596        C  0.78390207  0.35420781  0.56785673    -0.05700
C597        C  0.78383879  0.32538674  0.54898273    -0.06500
C598        C  0.78676582  0.32304716  0.50547204    -0.16100
C599        C  0.79003583  0.35055426  0.47967604    -0.01600
C600        C  0.78943711  0.37900670  0.49863885    -0.09200
C601        C  0.78069154  0.35556909  0.61505751     0.65100
H602        H  0.78121111  0.30417032  0.56815893     0.10500
C603        C  0.79324348  0.34983859  0.43237931     0.63500
H604        H  0.79094648  0.39987174  0.47971780     0.07900
F605        F  0.71927701  0.44042798  0.64571905    -0.19600
F606        F  0.69084306  0.39350938  0.60474565    -0.15800
F607        F  0.70231478  0.44558678  0.58107474    -0.19300
F608        F  0.85277212  0.44500781  0.50738960    -0.22700
F609        F  0.85892529  0.42805603  0.57137432    -0.24100
F610        F  0.87831715  0.48443198  0.55838541    -0.18100
F611        F  0.79256164  0.37760095  0.41368886    -0.20600
F612        F  0.76585713  0.31946368  0.41636833    -0.21800
F613        F  0.82454729  0.35179244  0.42169301    -0.19000
F614        F  0.78022222  0.32741984  0.63426480    -0.19100
F615        F  0.75008942  0.35512736  0.62556057    -0.22900
F616        F  0.80866898  0.38567866  0.63065228    -0.24500
C617        C  0.62001761  0.18012908  0.38646031    -0.11300
C618        C  0.62014455  0.21003271  0.37229770     0.11300
C619        C  0.65192924  0.24211060  0.37022372    -0.03100
C620        C  0.68268445  0.24323074  0.38363213    -0.05800
C621        C  0.68240664  0.21364104  0.39966164    -0.16600
C622        C  0.65074605  0.18113808  0.39967093     0.02300
C623        C  0.58632697  0.20719981  0.36115420     0.12300
C624        C  0.65315039  0.27516558  0.35504574     0.62900
H625        H  0.70703945  0.26783384  0.38365591     0.12300
C626        C  0.64907724  0.14751101  0.41327160     0.55000
H627        H  0.59528010  0.15593742  0.38797561     0.08100
C628        C  0.57022389  0.19365420  0.32225786    -0.05700
C629        C  0.53931194  0.19378949  0.31299508    -0.06500
C630        C  0.52413896  0.20719293  0.34107169    -0.16100
C631        C  0.53958722  0.21924994  0.38103901    -0.01600
C632        C  0.57030998  0.21854262  0.39040641    -0.09200
C633        C  0.58596992  0.17974513  0.29033895     0.65100
H634        H  0.52742858  0.18445508  0.28272247     0.10500
C635        C  0.52426418  0.23290673  0.41383980     0.63500
H636        H  0.58288177  0.22795382  0.42036083     0.07900
F637        F  0.67636872  0.14494997  0.39559903    -0.19600
F638        F  0.61829290  0.11851587  0.40079426    -0.15800
F639        F  0.65094139  0.14677233  0.45630230    -0.19300
F640        F  0.63454371  0.28437803  0.38212649    -0.22700
F641        F  0.63878078  0.26984650  0.31562395    -0.24100
F642        F  0.68699077  0.30287835  0.35287626    -0.18100
F643        F  0.48908681  0.20947467  0.41923553    -0.20600
F644        F  0.52879117  0.26479844  0.40159209    -0.21800
F645        F  0.54030466  0.23761201  0.45221989    -0.19000
F646        F  0.56678104  0.16910491  0.25381735    -0.19100
F647        F  0.58689496  0.15137508  0.30653378    -0.22900
F648        F  0.61952825  0.20536124  0.28029164    -0.24500
C649        C  0.66040386  0.69253576  0.54496977    -0.11300
C650        C  0.65856768  0.68098917  0.58608446     0.11300
C651        C  0.64141397  0.68998908  0.61713479    -0.03100
C652        C  0.62646582  0.71029954  0.60568119    -0.05800
C653        C  0.62864557  0.72243467  0.56458887    -0.16600
C654        C  0.64559235  0.71302685  0.53345000     0.02300
C655        C  0.67803940  0.66262445  0.59631859     0.12300
C656        C  0.63928473  0.67859328  0.66228020     0.62900
H657        H  0.61372398  0.71776185  0.62930378     0.12300
C658        C  0.64791669  0.72409558  0.48823195     0.55000
H659        H  0.67440850  0.68599238  0.52206568     0.08100
C660        C  0.66510892  0.62694312  0.58731697    -0.05700
C661        C  0.68616195  0.61221539  0.59641310    -0.06500
C662        C  0.71989257  0.63208165  0.61347177    -0.16100
C663        C  0.73258713  0.66808113  0.62261678    -0.01600
C664        C  0.71131670  0.68249313  0.61350462    -0.09200
C665        C  0.62959830  0.60477420  0.56728895     0.65100
H666        H  0.67651527  0.58498086  0.58935882     0.10500
C667        C  0.76858319  0.69196352  0.64083857     0.63500
H668        H  0.72063831  0.70986876  0.61928024     0.07900
F669        F  0.61512719  0.71554877  0.47395878    -0.19600
F670        F  0.66075155  0.70772257  0.46248781    -0.15800
F671        F  0.67007671  0.75965820  0.48495505    -0.19300
F672        F  0.67237499  0.69311968  0.67900409    -0.22700
F673        F  0.62348990  0.64269835  0.66420215    -0.24100
F674        F  0.62010852  0.68888447  0.68697123    -0.18100
F675        F  0.79400668  0.69252872  0.61481651    -0.20600
F676        F  0.77086782  0.68045065  0.68010498    -0.21800
F677        F  0.77546157  0.72596762  0.64520562    -0.19000
F678        F  0.62101801  0.57020972  0.56351361    -0.19100
F679        F  0.62965520  0.61713719  0.52776885    -0.22900
F680        F  0.60405273  0.60602558  0.59118307    -0.24500
C681        C  0.67067133  0.04453924  0.52692224    -0.11300
C682        C  0.67197692  0.02329788  0.49510774     0.11300
C683        C  0.68998026  0.03845130  0.45747586    -0.03100
C684        C  0.70898482  0.07497128  0.45450205    -0.05800
C685        C  0.70954167  0.09657790  0.48730006    -0.16600
C686        C  0.68892867  0.08114195  0.52368571     0.02300
C687        C  0.65493131  0.98519245  0.50239557     0.12300
C688        C  0.68919082  0.01607087  0.42077778     0.62900
H689        H  0.72393888  0.08702293  0.42648248     0.12300
C690        C  0.68651510  0.10276690  0.55939417     0.55000
H691        H  0.65564162  0.03204074  0.55472832     0.08100
C692        C  0.67227774  0.97024377  0.52324389    -0.05700
C693        C  0.65590792  0.93373237  0.52573338    -0.06500
C694        C  0.62241621  0.91160150  0.50902808    -0.16100
C695        C  0.60416109  0.92719340  0.49061334    -0.01600
C696        C  0.62106366  0.96381033  0.48758736    -0.09200
C697        C  0.70792115  0.99290079  0.54288813     0.65100
H698        H  0.66968271  0.92227489  0.54062177     0.10500
C699        C  0.56709808  0.90603919  0.47429388     0.63500
H700        H  0.60820648  0.97629319  0.47277365     0.07900
F701        F  0.66717316  0.08224199  0.59265916    -0.19600
F702        F  0.67041521  0.12077665  0.54561180    -0.15800
F703        F  0.71945083  0.12611273  0.57406173    -0.19300
F704        F  0.65516790  0.99520433  0.40762758    -0.22700
F705        F  0.70267069  0.99516065  0.43246411    -0.24100
F706        F  0.70852553  0.03607634  0.38717899    -0.18100
F707        F  0.55380715  0.92705933  0.46207235    -0.20600
F708        F  0.54544361  0.88426596  0.50533207    -0.21800
F709        F  0.56641038  0.88660793  0.43987569    -0.19000
F710        F  0.72062298  0.97317271  0.56100557    -0.19100
F711        F  0.70554877  0.01371851  0.57370751    -0.22900
F712        F  0.73168795  0.01390475  0.51294016    -0.24500
C713        C  0.66010675  0.69159223  0.05280681    -0.11300
C714        C  0.63896634  0.66099903  0.07505148     0.11300
C715        C  0.60525014  0.65338632  0.08800871    -0.03100
C716        C  0.59396066  0.67719091  0.07818859    -0.05800
C717        C  0.61545511  0.70863179  0.05672286    -0.16600
C718        C  0.64922167  0.71567211  0.04320688     0.02300
C719        C  0.65501753  0.63977800  0.08728625     0.12300
C720        C  0.58156325  0.62063313  0.11265337     0.62900
H721        H  0.56824248  0.67159909  0.08819200     0.12300
C722        C  0.67457074  0.74866228  0.01993465     0.55000
H723        H  0.68597650  0.69683927  0.04391823     0.08100
C724        C  0.65964035  0.61801291  0.05843694    -0.05700
C725        C  0.68154974  0.60474275  0.06936835    -0.06500
C726        C  0.69956857  0.61312926  0.10766989    -0.16100
C727        C  0.69284487  0.63296612  0.13767093    -0.01600
C728        C  0.67086672  0.64619053  0.12663395    -0.09200
C729        C  0.64308633  0.61034470  0.01538385     0.65100
H730        H  0.68637884  0.58933430  0.04672924     0.10500
C731        C  0.70901206  0.64092004  0.18088471     0.63500
H732        H  0.66731083  0.66328847  0.14797474     0.07900
F733        F  0.66035276  0.74992233  0.98210413    -0.19600
F734        F  0.70601507  0.75005409  0.01143616    -0.15800
F735        F  0.68178155  0.77767067  0.04383343    -0.19300
F736        F  0.59715254  0.62085507  0.14997309    -0.22700
F737        F  0.57530397  0.59140539  0.08996475    -0.24100
F738        F  0.54967630  0.61804999  0.12175989    -0.18100
F739        F  0.74393989  0.66591664  0.17807372    -0.20600
F740        F  0.70563271  0.61095726  0.19858507    -0.21800
F741        F  0.69287762  0.65351715  0.20740252    -0.19000
F742        F  0.64736275  0.58525753  0.99430581    -0.19100
F743        F  0.65823938  0.64036405  0.99171480    -0.22900
F744        F  0.60770585  0.59824953  0.01876936    -0.24500
C745        C  0.67725483  0.03345185  0.95923891    -0.11300
C746        C  0.67335578  0.01910400  0.99916800     0.11300
C747        C  0.68822483  0.04129798  0.03420183    -0.03100
C748        C  0.70645321  0.07755893  0.02794943    -0.05800
C749        C  0.71136210  0.09191671  0.98783090    -0.16600
C750        C  0.69630077  0.06970434  0.95284393     0.02300
C751        C  0.65624606  0.98066444  0.00279607     0.12300
C752        C  0.68591699  0.02667869  0.07767080     0.62900
H753        H  0.71853048  0.09503846  0.05420557     0.12300
C754        C  0.70029008  0.08420175  0.90907034     0.55000
H755        H  0.66614909  0.01585759  0.93287814     0.08100
C756        C  0.61962503  0.95907900  0.00557928    -0.05700
C757        C  0.60568597  0.92287875  0.00982685    -0.06500
C758        C  0.62717073  0.90779348  0.01047382    -0.16100
C759        C  0.66393400  0.92960598  0.00601392    -0.01600
C760        C  0.67769372  0.96575827  0.00242558    -0.09200
C761        C  0.59549684  0.97419919  0.00289393     0.65100
H762        H  0.57768759  0.90594658  0.01227396     0.10500
C763        C  0.68870457  0.91510374  0.00350796     0.63500
H764        H  0.70561748  0.98298789  0.99933624     0.07900
F765        F  0.67904935  0.05866650  0.88080609    -0.19600
F766        F  0.73446753  0.09802164  0.89571125    -0.15800
F767        F  0.69130942  0.11001456  0.90892599    -0.19300
F768        F  0.70356538  0.00823094  0.07844326    -0.22700
F769        F  0.65145220  0.00467365  0.08858733    -0.24100
F770        F  0.70047703  0.05278620  0.10756919    -0.18100
F771        F  0.72232345  0.94051948  0.99303526    -0.20600
F772        F  0.67746303  0.88926750  0.97326996    -0.21800
F773        F  0.69011977  0.90159952  0.04176622    -0.19000
F774        F  0.56087752  0.94895003  0.00852735    -0.19100
F775        F  0.59884664  0.98891311  0.96399535    -0.22900
F776        F  0.60393418  0.99957120  0.03317984    -0.24500
C777        C  0.59736819  0.77976937  0.81958109    -0.11300
C778        C  0.62399385  0.81172396  0.80437437     0.11300
C779        C  0.64532652  0.83842465  0.83294718    -0.03100
C780        C  0.63833795  0.83245483  0.87616215    -0.05800
C781        C  0.61048979  0.80099934  0.89120802    -0.16600
C782        C  0.59055558  0.77365584  0.86255792     0.02300
C783        C  0.62619522  0.81694274  0.75828914     0.12300
C784        C  0.67452155  0.87335048  0.81774309     0.62900
H785        H  0.65325290  0.85311480  0.89836261     0.12300
C786        C  0.56217165  0.73802331  0.87707680     0.55000
H787        H  0.58104347  0.75984839  0.79723033     0.08100
C788        C  0.64002635  0.80127123  0.73117271    -0.05700
C789        C  0.63592439  0.80255521  0.68772960    -0.06500
C790        C  0.61694666  0.81724959  0.67106579    -0.16100
C791        C  0.60407969  0.83386061  0.69800164    -0.01600
C792        C  0.60931838  0.83375958  0.74130309    -0.09200
C793        C  0.65740551  0.78171661  0.74804004     0.65100
H794        H  0.64495783  0.78944186  0.66658709     0.10500
C795        C  0.58349547  0.85018895  0.68128085     0.63500
H796        H  0.59817086  0.84483253  0.76252726     0.07900
F797        F  0.57420300  0.72708872  0.91015246    -0.19600
F798        F  0.55243882  0.71331564  0.84556259    -0.15800
F799        F  0.53290316  0.73950398  0.88947129    -0.19300
F800        F  0.66079606  0.89020548  0.79526143    -0.22700
F801        F  0.69716027  0.86840677  0.79237755    -0.24100
F802        F  0.69352848  0.89482147  0.85059747    -0.18100
F803        F  0.57996602  0.87117838  0.71096478    -0.20600
F804        F  0.55046870  0.82433879  0.66978080    -0.21800
F805        F  0.60036196  0.87058485  0.64688321    -0.19000
F806        F  0.67066396  0.77016901  0.71628260    -0.19100
F807        F  0.63348902  0.75291917  0.77031088    -0.22900
F808        F  0.68463463  0.80324568  0.77401546    -0.24500
C809        C  0.64391477  0.83981349  0.32891155    -0.11300
C810        C  0.62160329  0.81124942  0.30384473     0.11300
C811        C  0.59803140  0.77910705  0.32283183    -0.03100
C812        C  0.59590291  0.77738351  0.36666600    -0.05800
C813        C  0.61639253  0.80657672  0.39202345    -0.16600
C814        C  0.64160497  0.83817884  0.37295656     0.02300
C815        C  0.62210143  0.81575333  0.25777594     0.12300
C816        C  0.57456810  0.74696896  0.29685333     0.62900
H817        H  0.57695046  0.75341258  0.38163982     0.12300
C818        C  0.66468937  0.87049943  0.39865764     0.55000
H819        H  0.66219500  0.86384731  0.31354179     0.08100
C820        C  0.60109839  0.82741401  0.23841280    -0.05700
C821        C  0.59743207  0.82461469  0.19471822    -0.06500
C822        C  0.61445568  0.81115094  0.17001446    -0.16100
C823        C  0.63810613  0.80266205  0.18914691    -0.01600
C824        C  0.64158583  0.80528063  0.23298812    -0.09200
C825        C  0.58183832  0.84173529  0.26392356     0.65100
H826        H  0.57987489  0.83147274  0.17953829     0.10500
C827        C  0.65787769  0.78883911  0.16390470     0.63500
H828        H  0.65810104  0.79730689  0.24859207     0.07900
F829        F  0.64430520  0.87967739  0.42260270    -0.19600
F830        F  0.68620380  0.89867104  0.37372395    -0.15800
F831        F  0.68563544  0.86392736  0.42449655    -0.19300
F832        F  0.59477870  0.73780545  0.27257877    -0.22700
F833        F  0.55365845  0.75364857  0.27109775    -0.24100
F834        F  0.55298070  0.71870176  0.32160908    -0.18100
F835        F  0.67884615  0.78156849  0.18889436    -0.20600
F836        F  0.67911058  0.81341091  0.13487518    -0.21800
F837        F  0.63457899  0.75842651  0.14353928    -0.19000
F838        F  0.56339705  0.85217535  0.23879292    -0.19100
F839        F  0.60550132  0.87036277  0.28678700    -0.22900
F840        F  0.55847238  0.81660112  0.29099146    -0.24500
C841        C  0.02809560  0.35016443  0.87984731    -0.11300
C842        C  0.01635858  0.34611641  0.92135937     0.11300
C843        C  0.04081197  0.36056712  0.95427800    -0.03100
C844        C  0.07655825  0.37784282  0.94431633    -0.05800
C845        C  0.08833065  0.38095160  0.90285609    -0.16600
C846        C  0.06385845  0.36811922  0.86984791     0.02300
C847        C  0.97829139  0.32507357  0.92943504     0.12300
C848        C  0.02923950  0.35749856  0.99966539     0.62900
H849        H  0.09573178  0.38797555  0.96911820     0.12300
C850        C  0.07537450  0.37469521  0.82441495     0.55000
H851        H  0.00887252  0.33869159  0.85523324     0.08100
C852        C  0.95533217  0.33802517  0.92240167    -0.05700
C853        C  0.91944786  0.31597481  0.92991633    -0.06500
C854        C  0.90587478  0.28156311  0.94431553    -0.16100
C855        C  0.92947972  0.26906461  0.95236551    -0.01600
C856        C  0.96514714  0.29101787  0.94373349    -0.09200
C857        C  0.96867126  0.37475372  0.90632038     0.65100
H858        H  0.90157551  0.32551045  0.92396296     0.10500
C859        C  0.91782823  0.23288728  0.96958462     0.63500
H860        H  0.98349362  0.28181855  0.94819029     0.07900
F861        F  0.04739319  0.36479671  0.79784365    -0.19600
F862        F  0.09172696  0.35611603  0.81324629    -0.15800
F863        F  0.09819255  0.40990993  0.81871238    -0.19300
F864        F  0.01225573  0.32298563  0.01179488    -0.22700
F865        F  0.00686685  0.37065867  0.00451470    -0.24100
F866        F  0.05724858  0.37582398  0.02620478    -0.18100
F867        F  0.89368290  0.20766831  0.94314463    -0.20600
F868        F  0.90337610  0.22970838  0.00894428    -0.21800
F869        F  0.94536342  0.22656348  0.97349012    -0.19000
F870        F  0.94277714  0.38366776  0.90646740    -0.19100
F871        F  0.98066579  0.37726132  0.86577177    -0.22900
F872        F  0.99564638  0.39856275  0.93113553    -0.24500
C873        C  0.28548985  0.32096494  0.84783949    -0.11300
C874        C  0.31574488  0.33875577  0.82362173     0.11300
C875        C  0.32513680  0.37173325  0.80705789    -0.03100
C876        C  0.30421550  0.38653422  0.81684890    -0.05800
C877        C  0.27398056  0.36925295  0.84211003    -0.16600
C878        C  0.26434745  0.33546202  0.85786086     0.02300
C879        C  0.33724541  0.32197273  0.81727441     0.12300
C880        C  0.35701262  0.39103408  0.77905032     0.62900
H881        H  0.31145617  0.41190161  0.80434475     0.12300
C882        C  0.23215940  0.31415602  0.88494892     0.55000
H883        H  0.27886803  0.29542441  0.85929717     0.08100
C884        C  0.35923521  0.32209204  0.84913969    -0.05700
C885        C  0.37577759  0.30234664  0.84328200    -0.06500
C886        C  0.37044233  0.28192769  0.80722224    -0.16100
C887        C  0.35009002  0.28363483  0.77412695    -0.01600
C888        C  0.33337501  0.30336571  0.78016187    -0.09200
C889        C  0.36406163  0.34180229  0.88995034     0.65100
H890        H  0.39175577  0.30138199  0.86814296     0.10500
C891        C  0.34613330  0.26527033  0.73251354     0.63500
H892        H  0.31619856  0.30358792  0.75633078     0.07900
F893        F  0.23438939  0.33225992  0.92132249    -0.19600
F894        F  0.22874688  0.28249930  0.89645547    -0.15800
F895        F  0.20240472  0.30706298  0.86318064    -0.19300
F896        F  0.35292036  0.37172509  0.74322608    -0.22700
F897        F  0.38657034  0.39625870  0.79975108    -0.24100
F898        F  0.36212054  0.42326339  0.76716138    -0.18100
F899        F  0.32409708  0.22979449  0.73701889    -0.20600
F900        F  0.37838869  0.27154824  0.71821262    -0.21800
F901        F  0.33220442  0.27700561  0.70235244    -0.19000
F902        F  0.38965370  0.34174900  0.91453181    -0.19100
F903        F  0.33319215  0.32643986  0.91245885    -0.22900
F904        F  0.37371951  0.37611092  0.88201646    -0.24500
C905        C  0.35070357  0.57533691  0.97084469    -0.11300
C906        C  0.37783298  0.59011526  0.94146398     0.11300
C907        C  0.37471972  0.57315560  0.90286911    -0.03100
C908        C  0.34369832  0.54198444  0.89454016    -0.05800
C909        C  0.31533955  0.52802510  0.92274834    -0.16600
C910        C  0.31890732  0.54504583  0.96187471     0.02300
C911        C  0.40932770  0.62340760  0.95245604     0.12300
C912        C  0.40360877  0.58839783  0.87016351     0.62900
H913        H  0.34083376  0.52916534  0.86472969     0.12300
C914        C  0.28961707  0.53219198  0.99401455     0.55000
H915        H  0.35429334  0.58869202  0.00044234     0.08100
C916        C  0.40972611  0.65556692  0.95168003    -0.05700
C917        C  0.43980220  0.68568267  0.96548238    -0.06500
C918        C  0.46917548  0.68452493  0.97985369    -0.16100
C919        C  0.46929860  0.65243216  0.97830493    -0.01600
C920        C  0.43886593  0.62225951  0.96546427    -0.09200
C921        C  0.37838910  0.65799855  0.93695632     0.65100
H922        H  0.44001944  0.71025405  0.96666206     0.10500
C923        C  0.50125443  0.64965277  0.98921743     0.63500
H924        H  0.43764685  0.59720036  0.96605333     0.07900
F925        F  0.26329303  0.53763843  0.97968124    -0.19600
F926        F  0.30092999  0.54962579  0.03180650    -0.15800
F927        F  0.27651957  0.49711328  0.00140391    -0.19300
F928        F  0.43323526  0.58930583  0.88527184    -0.22700
F929        F  0.41136722  0.62187761  0.86034319    -0.24100
F930        F  0.39413749  0.56888731  0.83365833    -0.18100
F931        F  0.49769138  0.61807008  0.97639613    -0.20600
F932        F  0.50629995  0.65233414  0.03194913    -0.21800
F933        F  0.53045482  0.67579507  0.96950041    -0.19000
F934        F  0.38541436  0.69216909  0.93572250    -0.19100
F935        F  0.35047448  0.63983249  0.96374794    -0.22900
F936        F  0.36904751  0.64409205  0.89720061    -0.24500
C937        C  0.96071287  0.34330246  0.42347382    -0.11300
C938        C  0.98116498  0.32763407  0.42915943     0.11300
C939        C  0.96546471  0.29308458  0.44407811    -0.03100
C940        C  0.92891826  0.27382084  0.44794554    -0.05800
C941        C  0.90770588  0.28845659  0.43931617    -0.16600
C942        C  0.92418111  0.32459325  0.42921361     0.02300
C943        C  0.01908690  0.34789149  0.41929710     0.12300
C944        C  0.98734397  0.27678105  0.45610476     0.62900
H945        H  0.91665719  0.24678435  0.45715234     0.12300
C946        C  0.90398723  0.34394782  0.42552177     0.55000
H947        H  0.97365254  0.37027859  0.41380840     0.08100
C948        C  0.03219736  0.34758363  0.37890715    -0.05700
C949        C  0.06859992  0.36370406  0.37294304    -0.06500
C950        C  0.09205736  0.38139728  0.40559595    -0.16100
C951        C  0.07863214  0.38388903  0.44538470    -0.01600
C952        C  0.04223554  0.36673977  0.45143523    -0.09200
C953        C  0.00765109  0.33051688  0.34237415     0.65100
H954        H  0.07907025  0.36266812  0.34258495     0.10500
C955        C  0.10223134  0.40348275  0.48194686     0.63500
H956        H  0.03135354  0.36732656  0.48168081     0.07900
F957        F  0.88445765  0.33400748  0.38933095    -0.19600
F958        F  0.92603050  0.37970553  0.42414476    -0.15800
F959        F  0.88223583  0.33684882  0.45981968    -0.19300
F960        F  0.01007638  0.29618061  0.48770554    -0.22700
F961        F  0.00635476  0.27596748  0.42204803    -0.24100
F962        F  0.96694296  0.24301243  0.47039504    -0.18100
F963        F  0.12061534  0.43877803  0.47346990    -0.20600
F964        F  0.12528925  0.39162647  0.48881474    -0.21800
F965        F  0.08357944  0.39895841  0.51857368    -0.19000
F966        F  0.02559686  0.33339912  0.30561596    -0.19100
F967        F  0.98792343  0.34647640  0.33656747    -0.22900
F968        F  0.98556638  0.29551049  0.35021046    -0.24500
C969        C  0.30710907  0.33901430  0.36909209    -0.11300
C970        C  0.32900703  0.34917884  0.33389739     0.11300
C971        C  0.33082180  0.37536109  0.30735178    -0.03100
C972        C  0.30984436  0.39010101  0.31670098    -0.05800
C973        C  0.28614742  0.37860365  0.35055766    -0.16600
C974        C  0.28572420  0.35344088  0.37830306     0.02300
C975        C  0.34757911  0.32984204  0.32414800     0.12300
C976        C  0.35399224  0.38698650  0.26862103     0.62900
H977        H  0.31076429  0.40980055  0.29611931     0.12300
C978        C  0.26323415  0.34170066  0.41752283     0.55000
H979        H  0.30609544  0.31868140  0.38867090     0.08100
C980        C  0.37759347  0.33564689  0.34606673    -0.05700
C981        C  0.39113156  0.31334362  0.33826641    -0.06500
C982        C  0.37595885  0.28583243  0.30887784    -0.16100
C983        C  0.34769672  0.28242523  0.28411765    -0.01600
C984        C  0.33338562  0.30382719  0.29345323    -0.09200
C985        C  0.39467432  0.36467998  0.37830870     0.65100
H986        H  0.41312803  0.31668464  0.35646265     0.10500
C987        C  0.33241822  0.25690421  0.24776423     0.63500
H988        H  0.31033949  0.30004042  0.27718817     0.07900
F989        F  0.27248679  0.32288330  0.44366356    -0.19600
F990        F  0.22858800  0.32059586  0.40685719    -0.15800
F991        F  0.26717104  0.37038334  0.43973879    -0.19300
F992        F  0.34214200  0.35993185  0.24003932    -0.22700
F993        F  0.38797105  0.39702887  0.27922869    -0.24100
F994        F  0.35412774  0.41493376  0.24931419    -0.18100
F995        F  0.30994587  0.26306725  0.22415204    -0.20600
F996        F  0.31373888  0.22314073  0.26250421    -0.21800
F997        F  0.35892152  0.26026386  0.22144406    -0.19000
F998        F  0.42614133  0.36873946  0.39192958    -0.19100
F999        F  0.37288103  0.35725250  0.41253869    -0.22900
F1000       F  0.40117994  0.39599420  0.36133569    -0.24500
C1001       C  0.17455657  0.40271545  0.66288165    -0.11300
C1002       C  0.18342758  0.37880408  0.64602369     0.11300
C1003       C  0.19037060  0.35793754  0.67324717    -0.03100
C1004       C  0.18861025  0.36219528  0.71682703    -0.05800
C1005       C  0.18160920  0.38754881  0.73365795    -0.16600
C1006       C  0.17304752  0.40718888  0.70622368     0.02300
C1007       C  0.18822756  0.37880529  0.59988347     0.12300
C1008       C  0.20226154  0.33335120  0.65638530     0.62900
H1009       H  0.19583532  0.34792500  0.73805802     0.12300
C1010       C  0.16299961  0.43374512  0.72088530     0.55000
H1011       H  0.16948502  0.41872877  0.64177631     0.08100
C1012       C  0.16006355  0.35960068  0.57225637    -0.05700
C1013       C  0.16641965  0.36332184  0.52876201    -0.06500
C1014       C  0.19918268  0.38797544  0.51252122    -0.16100
C1015       C  0.22759563  0.40623032  0.54019013    -0.01600
C1016       C  0.22158916  0.40138570  0.58353070    -0.09200
C1017       C  0.12298450  0.33729448  0.58842733     0.65100
H1018       H  0.14535065  0.34947418  0.50745302     0.10500
C1019       C  0.26456978  0.43149150  0.52581505     0.63500
H1020       H  0.24271514  0.41601367  0.60468184     0.07900
F1021       F  0.13295991  0.42776609  0.70062698    -0.19600
F1022       F  0.18960109  0.46687809  0.71112104    -0.15800
F1023       F  0.15644736  0.43215972  0.76333588    -0.19300
F1024       F  0.23434099  0.35239589  0.63693876    -0.22700
F1025       F  0.17854533  0.31041991  0.62777777    -0.24100
F1026       F  0.20556868  0.31394556  0.68786307    -0.18100
F1027       F  0.27284353  0.46508962  0.53648382    -0.20600
F1028       F  0.26919214  0.42995786  0.48322976    -0.21800
F1029       F  0.28759121  0.42372007  0.54550708    -0.19000
F1030       F  0.09946500  0.32114610  0.55625294    -0.19100
F1031       F  0.11293466  0.35793540  0.61032463    -0.22900
F1032       F  0.12096775  0.31172285  0.61462431    -0.24500
C1033       C  0.20029611  0.35893046  0.17031873    -0.11300
C1034       C  0.18317110  0.37236675  0.14669124     0.11300
C1035       C  0.16455890  0.38655903  0.16741179    -0.03100
C1036       C  0.16706632  0.39049120  0.21121438    -0.05800
C1037       C  0.18683397  0.37991887  0.23455191    -0.16600
C1038       C  0.20266304  0.36269953  0.21413968     0.02300
C1039       C  0.18898869  0.37567670  0.10060988     0.12300
C1040       C  0.14303872  0.39840962  0.14307013     0.62900
H1041       H  0.15508680  0.40347056  0.22737853     0.12300
C1042       C  0.22431349  0.35094543  0.23824672     0.55000
H1043       H  0.21392886  0.34776904  0.15387411     0.08100
C1044       C  0.21789199  0.40547337  0.08321387    -0.05700
C1045       C  0.21961009  0.40985190  0.03967444    -0.06500
C1046       C  0.19376912  0.38546670  0.01278328    -0.16100
C1047       C  0.16678916  0.35378434  0.03004900    -0.01600
C1048       C  0.16474527  0.34967161  0.07397635    -0.09200
C1049       C  0.24654070  0.43288421  0.11066321     0.65100
H1050       H  0.24096478  0.43317774  0.02624440     0.10500
C1051       C  0.13977547  0.32484389  0.00278285     0.63500
H1052       H  0.14353773  0.32657799  0.08808543     0.07900
F1053       F  0.25281275  0.37970417  0.25525439    -0.19600
F1054       F  0.23638491  0.33360806  0.21297842    -0.15800
F1055       F  0.20445372  0.32865291  0.26994814    -0.19300
F1056       F  0.11746132  0.37049659  0.12095460    -0.22700
F1057       F  0.16403704  0.42445413  0.11540786    -0.24100
F1058       F  0.12684418  0.41121238  0.16915607    -0.18100
F1059       F  0.11611483  0.29656976  0.02616143    -0.20600
F1060       F  0.15624608  0.31325845  0.97540840    -0.21800
F1061       F  0.12133351  0.33695651  0.98050729    -0.19000
F1062       F  0.27192617  0.46011278  0.08743605    -0.19100
F1063       F  0.26252682  0.41789987  0.13249636    -0.22900
F1064       F  0.23267703  0.44669008  0.13873506    -0.24500
C1065       C  0.35371528  0.59144707  0.44883491    -0.11300
C1066       C  0.38421025  0.58964409  0.44313180     0.11300
C1067       C  0.38213761  0.55865085  0.42762937    -0.03100
C1068       C  0.34921941  0.53068052  0.41668420    -0.05800
C1069       C  0.31855627  0.53269398  0.42103518    -0.16600
C1070       C  0.32075111  0.56362472  0.43783274     0.02300
C1071       C  0.41780502  0.62106025  0.45384436     0.12300
C1072       C  0.41456236  0.55541177  0.42201128     0.62900
H1073       H  0.34720427  0.50688465  0.40422399     0.12300
C1074       C  0.28900516  0.56819330  0.44272998     0.55000
H1075       H  0.35621742  0.61543540  0.46138073     0.08100
C1076       C  0.43256386  0.65192993  0.42972804    -0.05700
C1077       C  0.46121397  0.68225134  0.44588041    -0.06500
C1078       C  0.47616533  0.68267115  0.48469520    -0.16100
C1079       C  0.46225813  0.65089954  0.50775032    -0.01600
C1080       C  0.43286239  0.62101590  0.49202195    -0.09200
C1081       C  0.41905143  0.65475247  0.38726534     0.65100
H1082       H  0.47185599  0.70600962  0.42782590     0.10500
C1083       C  0.47709947  0.64794550  0.54933537     0.63500
H1084       H  0.42050983  0.59728355  0.51012091     0.07900
F1085       F  0.29799965  0.60151585  0.45588861    -0.19600
F1086       F  0.26644787  0.54510730  0.47219435    -0.15800
F1087       F  0.27207991  0.56231915  0.40485160    -0.19300
F1088       F  0.42910214  0.55670183  0.46049925    -0.22700
F1089       F  0.43874711  0.58239470  0.39751595    -0.24100
F1090       F  0.40707947  0.52428404  0.40286112    -0.18100
F1091       F  0.45853538  0.61475828  0.56594691    -0.20600
F1092       F  0.47587381  0.67074624  0.57820987    -0.21800
F1093       F  0.51118121  0.65527807  0.54382711    -0.19000
F1094       F  0.44615981  0.66737662  0.35857422    -0.19100
F1095       F  0.40660901  0.67784811  0.39008328    -0.22900
F1096       F  0.39267808  0.62333732  0.37211762    -0.24500
C1097       C  0.29876924  0.97151743  0.71958897    -0.11300
C1098       C  0.33096059  0.98275986  0.73896342     0.11300
C1099       C  0.34034320  0.95804742  0.75158872    -0.03100
C1100       C  0.31696853  0.92250747  0.74384519    -0.05800
C1101       C  0.28402915  0.91076465  0.72543486    -0.16600
C1102       C  0.27485586  0.93595119  0.71264592     0.02300
C1103       C  0.35230504  0.02042040  0.74921294     0.12300
C1104       C  0.37419382  0.96902327  0.77470538     0.62900
H1105       H  0.32401259  0.90344056  0.75342180     0.12300
C1106       C  0.23979180  0.92595605  0.69315828     0.55000
H1107       H  0.29219318  0.99114517  0.71093451     0.08100
C1108       C  0.37386414  0.04544633  0.71930304    -0.05700
C1109       C  0.38938194  0.08098877  0.72991359    -0.06500
C1110       C  0.38286895  0.09216676  0.76852786    -0.16100
C1111       C  0.36272812  0.06694043  0.79922062    -0.01600
C1112       C  0.34764013  0.03139375  0.78876165    -0.09200
C1113       C  0.37930784  0.03478940  0.67583905     0.65100
H1114       H  0.40517184  0.10046847  0.70694420     0.10500
C1115       C  0.35735087  0.07712544  0.84293419     0.63500
H1116       H  0.33081393  0.01168320  0.81098067     0.07900
F1117       F  0.23595007  0.95471070  0.68625009    -0.19600
F1118       F  0.21301254  0.90378548  0.71950736    -0.15800
F1119       F  0.23672872  0.90982222  0.65497384    -0.19300
F1120       F  0.37347052  0.98341744  0.81292288    -0.22700
F1121       F  0.40231146  0.99343129  0.75183025    -0.24100
F1122       F  0.37930281  0.94107220  0.78182822    -0.18100
F1123       F  0.34314511  0.04883180  0.86964313    -0.20600
F1124       F  0.33484630  0.09030205  0.84181890    -0.21800
F1125       F  0.38903311  0.10198283  0.85932143    -0.19000
F1126       F  0.40235476  0.06329270  0.65231308    -0.19100
F1127       F  0.34788083  0.01800491  0.65490395    -0.22900
F1128       F  0.39268583  0.01256058  0.67852579    -0.24500
C1129       C  0.04102894  0.68854207  0.63328409    -0.11300
C1130       C  0.02100639  0.67273514  0.66907593     0.11300
C1131       C  0.03796135  0.67528261  0.70738880    -0.03100
C1132       C  0.07460801  0.69632394  0.70935247    -0.05800
C1133       C  0.09449784  0.71371281  0.67398176    -0.16600
C1134       C  0.07762498  0.70921534  0.63507260     0.02300
C1135       C  0.98234297  0.65629536  0.66601272     0.12300
C1136       C  0.01731999  0.65584982  0.74583995     0.62900
H1137       H  0.08803941  0.69968433  0.73864715     0.12300
C1138       C  0.09802261  0.72796111  0.59622082     0.55000
H1139       H  0.02749599  0.68576466  0.60421885     0.08100
C1140       C  0.96574198  0.67655704  0.66925308    -0.05700
C1141       C  0.92919604  0.65984541  0.66577143    -0.06500
C1142       C  0.90881871  0.62379471  0.65856120    -0.16100
C1143       C  0.92553623  0.60363204  0.65417076    -0.01600
C1144       C  0.96221714  0.62034700  0.65811415    -0.09200
C1145       C  0.98665972  0.71583900  0.67565823     0.65100
H1146       H  0.91612059  0.67492226  0.66866788     0.10500
C1147       C  0.90499552  0.56507142  0.64357819     0.63500
H1148       H  0.97555909  0.60555405  0.65486038     0.07900
F1149       F  0.07649115  0.72164504  0.56220316    -0.19600
F1150       F  0.12152835  0.71706312  0.58594364    -0.15800
F1151       F  0.11586402  0.76342881  0.60375108    -0.19300
F1152       F  0.99955250  0.62043356  0.73761811    -0.22700
F1153       F  0.99353895  0.66628536  0.75652340    -0.24100
F1154       F  0.03876671  0.66178710  0.77984197    -0.18100
F1155       F  0.92666542  0.55147370  0.63532453    -0.20600
F1156       F  0.88498333  0.56007369  0.60845762    -0.21800
F1157       F  0.88346512  0.54682447  0.67665828    -0.19000
F1158       F  0.96530784  0.73028002  0.68003037    -0.19100
F1159       F  0.00828732  0.73121538  0.64161542    -0.22900
F1160       F  0.00676838  0.72377671  0.71124334    -0.24500
C1161       C  0.24866389  0.59616951  0.80273457    -0.11300
C1162       C  0.21714802  0.59624308  0.80093018     0.11300
C1163       C  0.18540447  0.56549161  0.80981464    -0.03100
C1164       C  0.18657671  0.53578943  0.82278866    -0.05800
C1165       C  0.21826151  0.53564387  0.82538792    -0.16600
C1166       C  0.25001100  0.56639231  0.81460827     0.02300
C1167       C  0.21825190  0.62835169  0.78615944     0.12300
C1168       C  0.15054636  0.56399004  0.80460830     0.62900
H1169       H  0.16255929  0.51216474  0.83048499     0.12300
C1170       C  0.28543410  0.56862875  0.81661136     0.55000
H1171       H  0.27235555  0.61991081  0.79439381     0.08100
C1172       C  0.22363436  0.65588621  0.81347456    -0.05700
C1173       C  0.22345099  0.68512528  0.79675064    -0.06500
C1174       C  0.21999619  0.68814961  0.75362718    -0.16100
C1175       C  0.21808734  0.66187978  0.72603497    -0.01600
C1176       C  0.21631456  0.63196211  0.74310647    -0.09200
C1177       C  0.23102931  0.65492684  0.85954456     0.65100
H1178       H  0.22648149  0.70611285  0.81718012     0.10500
C1179       C  0.22009027  0.66607229  0.67878701     0.63500
H1180       H  0.21385983  0.61109065  0.72284827     0.07900
F1181       F  0.31260103  0.60194621  0.80860222    -0.19600
F1182       F  0.28730582  0.54655752  0.78716154    -0.15800
F1183       F  0.29042617  0.55958163  0.85606015    -0.19300
F1184       F  0.14649365  0.57039863  0.76342500    -0.22700
F1185       F  0.14907619  0.58878015  0.82972009    -0.24100
F1186       F  0.12281619  0.53169001  0.81525106    -0.18100
F1187       F  0.22408471  0.64036131  0.65887570    -0.20600
F1188       F  0.24854325  0.69785208  0.66817130    -0.21800
F1189       F  0.18991513  0.66415053  0.66393390    -0.19000
F1190       F  0.23459057  0.68390143  0.88078181    -0.19100
F1191       F  0.26176697  0.65420004  0.86378909    -0.22900
F1192       F  0.20423543  0.62559554  0.87808207    -0.24500
C1193       C  0.41629068  0.76974385  0.62066385    -0.11300
C1194       C  0.41536963  0.79986993  0.61018892     0.11300
C1195       C  0.44384158  0.82723582  0.58906831    -0.03100
C1196       C  0.47132814  0.82206278  0.57568206    -0.05800
C1197       C  0.47179265  0.79102623  0.58423029    -0.16600
C1198       C  0.44409158  0.76470798  0.60851087     0.02300
C1199       C  0.38427852  0.80184533  0.62346398     0.12300
C1200       C  0.44556982  0.86197505  0.58187941     0.62900
H1201       H  0.49290362  0.84257279  0.55866491     0.12300
C1202       C  0.44290135  0.73110989  0.62132385     0.55000
H1203       H  0.39451114  0.74991291  0.63826227     0.08100
C1204       C  0.35323424  0.78628170  0.59979431    -0.05700
C1205       C  0.32334520  0.78517233  0.61688416    -0.06500
C1206       C  0.32318295  0.79793912  0.65721944    -0.16100
C1207       C  0.35467672  0.81371360  0.68090012    -0.01600
C1208       C  0.38474110  0.81556110  0.66309793    -0.09200
C1209       C  0.35132301  0.76970968  0.55737588     0.65100
H1210       H  0.29937359  0.77320570  0.59913488     0.10500
C1211       C  0.35672820  0.82706173  0.72539761     0.63500
H1212       H  0.40883967  0.82664896  0.68062856     0.07900
F1213       F  0.44296186  0.71278364  0.58614246    -0.19600
F1214       F  0.41319518  0.70958575  0.64423958    -0.15800
F1215       F  0.47135390  0.73870240  0.64608943    -0.19300
F1216       F  0.44640982  0.87733644  0.61996736    -0.22700
F1217       F  0.41670273  0.85719416  0.55997069    -0.24100
F1218       F  0.47506879  0.88475376  0.55946465    -0.18100
F1219       F  0.33190996  0.80079532  0.75021162    -0.20600
F1220       F  0.35131306  0.85526967  0.72557517    -0.21800
F1221       F  0.38901458  0.83795411  0.74323106    -0.19000
F1222       F  0.31878156  0.75668644  0.53931953    -0.19100
F1223       F  0.35785594  0.74243411  0.56165565    -0.22900
F1224       F  0.37576049  0.79403355  0.53048283    -0.24500
C1225       C  0.31322982  0.96528539  0.20260422    -0.11300
C1226       C  0.32387551  0.97765908  0.24337165     0.11300
C1227       C  0.31505772  0.95385922  0.27663855    -0.03100
C1228       C  0.29527613  0.91803164  0.26792529    -0.05800
C1229       C  0.28299783  0.90548857  0.22749819    -0.16600
C1230       C  0.29270593  0.92940993  0.19391890     0.02300
C1231       C  0.34056893  0.01565395  0.25109118     0.12300
C1232       C  0.32455327  0.96625464  0.32154571     0.62900
H1233       H  0.28741653  0.89956222  0.29330349     0.12300
C1234       C  0.28129929  0.91749217  0.14925720     0.55000
H1235       H  0.31985745  0.98414609  0.17787799     0.08100
C1236       C  0.37652846  0.03870838  0.24452632    -0.05700
C1237       C  0.38989092  0.07443543  0.25261824    -0.06500
C1238       C  0.36851566  0.08763843  0.26727686    -0.16100
C1239       C  0.33237396  0.06392919  0.27463483    -0.01600
C1240       C  0.31915042  0.02844395  0.26553674    -0.09200
C1241       C  0.40050693  0.02558457  0.22892262     0.65100
H1242       H  0.41735175  0.09241833  0.24728431     0.10500
C1243       C  0.30733739  0.07532518  0.29159777     0.63500
H1244       H  0.29167177  0.00995062  0.26994374     0.07900
F1245       F  0.28755896  0.89068954  0.13875639    -0.19600
F1246       F  0.29925247  0.94423555  0.12101799    -0.15800
F1247       F  0.24609961  0.90611429  0.14521125    -0.19300
F1248       F  0.30482113  0.98073431  0.33530994    -0.22700
F1249       F  0.35951634  0.99098899  0.32443542    -0.24100
F1250       F  0.31834113  0.93914195  0.34794945    -0.18100
F1251       F  0.30701338  0.09990871  0.26553104    -0.20600
F1252       F  0.31744965  0.08912144  0.33132041    -0.21800
F1253       F  0.27344290  0.04778437  0.29448400    -0.19000
F1254       F  0.43488508  0.05216563  0.22629968    -0.19100
F1255       F  0.39020239  0.01097709  0.18962407    -0.22900
F1256       F  0.39912853  0.00064426  0.25580344    -0.24500
C1257       C  0.95558653  0.63610599  0.18833726    -0.11300
C1258       C  0.97530651  0.66581272  0.16420778     0.11300
C1259       C  0.95858590  0.67708938  0.13611518    -0.03100
C1260       C  0.92194173  0.65877506  0.13458934    -0.05800
C1261       C  0.90153224  0.62932817  0.15972985    -0.16600
C1262       C  0.91892057  0.61745775  0.18703489     0.02300
C1263       C  0.01366632  0.68437604  0.16930151     0.12300
C1264       C  0.97942286  0.70806192  0.10756320     0.62900
H1265       H  0.90901406  0.66750186  0.11331227     0.12300
C1266       C  0.89987629  0.58558322  0.21502571     0.55000
H1267       H  0.96954992  0.62792435  0.20875777     0.08100
C1268       C  0.03019061  0.70809494  0.20245633    -0.05700
C1269       C  0.06664217  0.72443830  0.20567099    -0.06500
C1270       C  0.08709409  0.71753220  0.17729528    -0.16100
C1271       C  0.06992456  0.69223918  0.14501969    -0.01600
C1272       C  0.03337334  0.67631709  0.14173936    -0.09200
C1273       C  0.00932806  0.71590100  0.23447398     0.65100
H1274       H  0.07942986  0.74290955  0.23078841     0.10500
C1275       C  0.08924530  0.68149600  0.11406347     0.63500
H1276       H  0.01957177  0.65714728  0.11756153     0.07900
F1277       F  0.87811846  0.58990138  0.24267772    -0.19600
F1278       F  0.92269775  0.57994729  0.23864704    -0.15800
F1279       F  0.88067094  0.55609389  0.19083353    -0.19300
F1280       F  0.99923186  0.70064159  0.08019156    -0.22700
F1281       F  0.00135439  0.73725295  0.13082436    -0.24100
F1282       F  0.95801402  0.71591367  0.08424846    -0.18100
F1283       F  0.10602461  0.66701767  0.13530538    -0.20600
F1284       F  0.11332337  0.70998719  0.09147465    -0.21800
F1285       F  0.06686296  0.65685292  0.08565217    -0.19000
F1286       F  0.03070958  0.74130638  0.26279340    -0.19100
F1287       F  0.98756282  0.68604812  0.25661449    -0.22900
F1288       F  0.98934836  0.72749346  0.21470037    -0.24500
C1289       C  0.16026821  0.80881351  0.00020632    -0.11300
C1290       C  0.18818234  0.81395783  0.97429978     0.11300
C1291       C  0.22012823  0.82101219  0.99252529    -0.03100
C1292       C  0.22163067  0.81846081  0.03612232    -0.05800
C1293       C  0.19284409  0.81034909  0.06209560    -0.16600
C1294       C  0.16220269  0.80749866  0.04414372     0.02300
C1295       C  0.18286749  0.80966019  0.92825246     0.12300
C1296       C  0.25244538  0.83110392  0.96599811     0.62900
H1297       H  0.24533912  0.82230070  0.05036343     0.12300
C1298       C  0.13151675  0.80252033  0.07083592     0.55000
H1299       H  0.13653866  0.80478912  0.98552416     0.08100
C1300       C  0.17083648  0.77682388  0.90870296    -0.05700
C1301       C  0.17208685  0.77525641  0.86484654    -0.06500
C1302       C  0.18441807  0.80522183  0.84008728    -0.16100
C1303       C  0.19323106  0.83752043  0.85955868    -0.01600
C1304       C  0.19226794  0.83913380  0.90360830    -0.09200
C1305       C  0.15790609  0.74379197  0.93421602     0.65100
H1306       H  0.16520409  0.75074113  0.84950227     0.10500
C1307       C  0.20553464  0.87046483  0.83422421     0.63500
H1308       H  0.20056871  0.86380493  0.91932614     0.07900
F1309       F  0.11937197  0.77292323  0.09487441    -0.19600
F1310       F  0.10407651  0.79909157  0.04678316    -0.15800
F1311       F  0.14193097  0.83116216  0.09671653    -0.19300
F1312       F  0.26168610  0.86180437  0.94524681    -0.22700
F1313       F  0.24602015  0.80528485  0.93701119    -0.24100
F1314       F  0.28057770  0.83628281  0.98999230    -0.18100
F1315       F  0.17988968  0.86584180  0.80624763    -0.20600
F1316       F  0.23566652  0.87800466  0.81260500    -0.21800
F1317       F  0.21266011  0.89888612  0.85928916    -0.19000
F1318       F  0.14647239  0.71455171  0.90902556    -0.19100
F1319       F  0.13029609  0.73910788  0.95930296    -0.22900
F1320       F  0.18440630  0.74619502  0.95914858    -0.24500
C1321       C  0.16439494  0.78518651  0.41002883    -0.11300
C1322       C  0.18915066  0.81698021  0.42817947     0.11300
C1323       C  0.21126462  0.84532748  0.40205202    -0.03100
C1324       C  0.20927823  0.84010796  0.35847577    -0.05800
C1325       C  0.18626056  0.80760732  0.34065162    -0.16600
C1326       C  0.16228730  0.78017221  0.36638910     0.02300
C1327       C  0.19451027  0.81807770  0.47417688     0.12300
C1328       C  0.23780589  0.88050168  0.42008104     0.62900
H1329       H  0.22745018  0.86070133  0.33809596     0.12300
C1330       C  0.13476923  0.74590557  0.34756977     0.55000
H1331       H  0.14781691  0.76376563  0.43041933     0.08100
C1332       C  0.17172510  0.82046807  0.50362533    -0.05700
C1333       C  0.17733024  0.81825449  0.54657320    -0.06500
C1334       C  0.20403841  0.81239919  0.56074089    -0.16100
C1335       C  0.22820149  0.81229160  0.53093876    -0.01600
C1336       C  0.22244171  0.81450235  0.48825384    -0.09200
C1337       C  0.14103996  0.82420972  0.48963380     0.65100
H1338       H  0.15962510  0.81934619  0.56934387     0.10500
C1339       C  0.25999799  0.80964600  0.54326745     0.63500
H1340       H  0.23938025  0.81241583  0.46506906     0.07900
F1341       F  0.11214070  0.72363735  0.37767028    -0.19600
F1342       F  0.15036608  0.72938052  0.32763523    -0.15800
F1343       F  0.11544179  0.75222283  0.31878202    -0.19300
F1344       F  0.26310926  0.87758617  0.44178841    -0.22700
F1345       F  0.22143722  0.89254957  0.44685481    -0.24100
F1346       F  0.25423177  0.90512936  0.38911952    -0.18100
F1347       F  0.24995193  0.77560973  0.55349204    -0.20600
F1348       F  0.27664403  0.83138205  0.57689335    -0.21800
F1349       F  0.28404964  0.81952702  0.51092514    -0.19000
F1350       F  0.12347302  0.82838056  0.52319271    -0.19100
F1351       F  0.11767777  0.79476881  0.46776058    -0.22900
F1352       F  0.15256015  0.85295563  0.46412154    -0.24500
C1353       C  0.21167712  0.64306940  0.30507661    -0.11300
C1354       C  0.20444328  0.61692085  0.27538464     0.11300
C1355       C  0.19628614  0.62101144  0.23397292    -0.03100
C1356       C  0.19659768  0.65193734  0.22342597    -0.05800
C1357       C  0.20612645  0.67936993  0.25233273    -0.16600
C1358       C  0.21390497  0.67487453  0.29413774     0.02300
C1359       C  0.20745748  0.58637079  0.28826612     0.12300
C1360       C  0.18857105  0.59341728  0.20069289     0.62900
H1361       H  0.19089126  0.65552265  0.19164383     0.12300
C1362       C  0.22527273  0.70332260  0.32713089     0.55000
H1363       H  0.21728099  0.63889900  0.33668597     0.08100
C1364       C  0.24040598  0.58886514  0.29384073    -0.05700
C1365       C  0.24145200  0.55927425  0.30730569    -0.06500
C1366       C  0.21083285  0.52771797  0.31555656    -0.16100
C1367       C  0.17791675  0.52472307  0.30808173    -0.01600
C1368       C  0.17680853  0.55451365  0.29531718    -0.09200
C1369       C  0.27433350  0.62275969  0.28640315     0.65100
H1370       H  0.26634516  0.56095136  0.31317435     0.10500
C1371       C  0.14431523  0.49000469  0.31194446     0.63500
H1372       H  0.15193942  0.55325070  0.29098328     0.07900
F1373       F  0.22651936  0.69134033  0.36655206    -0.19600
F1374       F  0.20208227  0.71561306  0.32880028    -0.15800
F1375       F  0.25829176  0.73038717  0.31768266    -0.19300
F1376       F  0.15899547  0.56261019  0.21139948    -0.22700
F1377       F  0.21645479  0.58760957  0.19696791    -0.24100
F1378       F  0.18292432  0.60338075  0.16198141    -0.18100
F1379       F  0.11605248  0.49166184  0.29638679    -0.20600
F1380       F  0.13752400  0.48019863  0.35336326    -0.21800
F1381       F  0.14732651  0.46474505  0.28950341    -0.19000
F1382       F  0.30312090  0.61834101  0.28940857    -0.19100
F1383       F  0.27790317  0.64736427  0.31579756    -0.22900
F1384       F  0.27446586  0.63523971  0.24691241    -0.24500
C1385       C  0.35189969  0.78786108  0.09723195    -0.11300
C1386       C  0.37654460  0.79054464  0.12649213     0.11300
C1387       C  0.37021728  0.79207360  0.16963812    -0.03100
C1388       C  0.33861177  0.78982439  0.18209736    -0.05800
C1389       C  0.31300761  0.78532486  0.15301368    -0.16600
C1390       C  0.31971868  0.78438893  0.10973189     0.02300
C1391       C  0.40778490  0.78949785  0.11115834     0.12300
C1392       C  0.39637898  0.79525962  0.20236472     0.62900
H1393       H  0.33320100  0.79058354  0.21504914     0.12300
C1394       C  0.29340514  0.78019133  0.07686021     0.55000
H1395       H  0.35767672  0.78727903  0.06437549     0.08100
C1396       C  0.40583558  0.75770861  0.09921568    -0.05700
C1397       C  0.43655692  0.75815318  0.08667255    -0.06500
C1398       C  0.46870271  0.78928739  0.08447944    -0.16100
C1399       C  0.47061257  0.82123291  0.09599754    -0.01600
C1400       C  0.43984242  0.82070354  0.10911752    -0.09200
C1401       C  0.37133575  0.72355734  0.09884293     0.65100
H1402       H  0.43548325  0.73411445  0.07696632     0.10500
C1403       C  0.50492189  0.85549734  0.09552599     0.63500
H1404       H  0.44047366  0.84472136  0.11783813     0.07900
F1405       F  0.26469041  0.74702379  0.07883745    -0.19600
F1406       F  0.30717196  0.78501161  0.03686618    -0.15800
F1407       F  0.28308231  0.80456964  0.08372624    -0.19300
F1408       F  0.42730105  0.82629927  0.19727891    -0.22700
F1409       F  0.40280287  0.76782001  0.19836082    -0.24100
F1410       F  0.38434552  0.79476573  0.24257482    -0.18100
F1411       F  0.51620011  0.86489895  0.05483467    -0.20600
F1412       F  0.52985272  0.85209400  0.11754765    -0.21800
F1413       F  0.50165659  0.88224372  0.11371204    -0.19000
F1414       F  0.37583403  0.69541852  0.08963435    -0.19100
F1415       F  0.34969392  0.72482527  0.06884349    -0.22900
F1416       F  0.35521485  0.71780549  0.13748004    -0.24500
loop_ 
_geom_bond_atom_site_label_1 
_geom_bond_atom_site_label_2 
_geom_bond_distance 
_geom_bond_site_symmetry_2 
_ccdc_geom_bond_type 
Fe1          O17   2.060       .  S
Fe1           O7   2.084       .  S
Fe1          O14   2.090       .  S
Fe1           O6   2.058       .  S
Fe1          O12   1.949       .  S
Fe2           O5   2.047       .  S
Fe2           O9   2.079       .  S
Fe2          O13   2.048       .  S
Fe2          O18   2.081       .  S
Fe2          O12   1.953       .  S
Fe3          O21   2.104       .  S
Fe3           O8   2.052       .  S
Fe3          O15   2.051       .  S
Fe3           O4   2.099       .  S
Fe3          O12   1.959       .  S
O4           C11   1.273       .  A
O5           C19   1.266       .  A
O6           C11   1.269       .  A
O7           C10   1.272       .  A
O8           C20   1.267       .  A
O9           C22   1.269       .  A
C10          O15   1.271       .  A
C10        C1270   1.497       .  S
C11        C1293   1.491       .  S
O13          C16   1.268       .  A
O14          C16   1.274       .  A
C16        C1389   1.485       .  S
O17          C22   1.269       .  A
O18          C20   1.273       .  A
C19          O21   1.275       .  A
C19        C1325   1.475       .  S
C20        C1229   1.482       .  S
C22        C1357   1.492       .  S
Fe23         O39   2.041       .  S
Fe23         O29   2.089       .  S
Fe23         O36   2.094       .  S
Fe23         O28   2.034       .  S
Fe23         O34   1.943       .  S
Fe24         O27   2.040       .  S
Fe24         O31   2.092       .  S
Fe24         O35   2.038       .  S
Fe24         O40   2.080       .  S
Fe24         O34   1.949       .  S
Fe25         O43   2.122       .  S
Fe25         O30   2.060       .  S
Fe25         O37   2.070       .  S
Fe25         O26   2.114       .  S
Fe25         O34   1.948       .  S
O26          C33   1.279       .  A
O27          C41   1.268       .  A
O28          C33   1.263       .  A
O29          C32   1.273       .  A
O30          C42   1.266       .  A
O31          C44   1.272       .  A
C32          O37   1.271       .  A
C32        C1133   1.483       .  S
C33        C1334   1.497       .  S
O35          C38   1.263       .  A
O36          C38   1.277       .  A
C38        C1206   1.489       .  S
O39          C44   1.263       .  A
O40          C42   1.272       .  A
C41          O43   1.281       .  A
C41        C1302   1.486       .  S
C42        C1101   1.497       .  S
C44        C1174   1.480       .  S
Fe45         O61   2.056       .  S
Fe45         O51   2.065       .  S
Fe45         O58   2.068       .  S
Fe45         O50   2.053       .  S
Fe45         O56   1.966       .  S
Fe46         O49   2.053       .  S
Fe46         O53   2.074       .  S
Fe46         O57   2.054       .  S
Fe46         O62   2.061       .  S
Fe46         O56   1.970       .  S
Fe47         O65   2.097       .  S
Fe47         O52   2.069       .  S
Fe47         O59   2.079       .  S
Fe47         O48   2.097       .  S
Fe47         O56   1.978       .  S
O48          C55   1.275       .  A
O49          C63   1.266       .  A
O50          C55   1.268       .  A
O51          C54   1.267       .  A
O52          C64   1.270       .  A
O53          C66   1.271       .  A
C54          O59   1.272       .  A
C54         C950   1.491       .  S
C55        C1014   1.483       .  S
O57          C60   1.266       .  A
O58          C60   1.266       .  A
C60        C1069   1.487       .  S
O61          C66   1.268       .  A
O62          C64   1.270       .  A
C63          O65   1.274       .  A
C63        C1037   1.481       .  S
C64         C973   1.493       .  S
C66        C1366   1.476       .  S
Fe67         O83   2.061       .  S
Fe67         O73   2.074       .  S
Fe67         O80   2.078       .  S
Fe67         O72   2.050       .  S
Fe67         O78   1.957       .  S
Fe68         O71   2.046       .  S
Fe68         O75   2.076       .  S
Fe68         O79   2.054       .  S
Fe68         O84   2.076       .  S
Fe68         O78   1.951       .  S
Fe69         O87   2.112       .  S
Fe69         O74   2.050       .  S
Fe69         O81   2.052       .  S
Fe69         O70   2.110       .  S
Fe69         O78   1.955       .  S
O70          C77   1.278       .  A
O71          C85   1.269       .  A
O72          C77   1.271       .  A
O73          C76   1.270       .  A
O74          C86   1.263       .  A
O75          C88   1.269       .  A
C76          O81   1.266       .  A
C76         C845   1.477       .  S
C77        C1046   1.499   1_556  S
O79          C82   1.269       .  A
O80          C82   1.269       .  A
C82         C909   1.489       .  S
O83          C88   1.270       .  A
O84          C86   1.270       .  A
C85          O87   1.280       .  A
C85        C1005   1.484       .  S
C86         C877   1.499       .  S
C88        C1165   1.488       .  S
Fe89        O105   2.053   1_556  S
Fe89         O95   2.084       .  S
Fe89        O102   2.092       .  S
Fe89         O94   2.043       .  S
Fe89        O100   1.950   1_556  S
Fe90         O93   2.043       .  S
Fe90         O97   2.081       .  S
Fe90        O101   2.039       .  S
Fe90        O106   2.086       .  S
Fe90        O100   1.950       .  S
Fe91        O109   2.110       .  S
Fe91         O96   2.062       .  S
Fe91        O103   2.054       .  S
Fe91         O92   2.106   1_554  S
Fe91        O100   1.949       .  S
O92          C99   1.276       .  A
O93         C107   1.268       .  A
O94          C99   1.265       .  A
O95          C98   1.274   1_556  A
O96         C108   1.266       .  A
O97         C110   1.271       .  A
C98         O103   1.268       .  A
C98         C758   1.487       .  S
C99         C781   1.486       .  S
O101        C104   1.266   1_554  A
O102        C104   1.277       .  A
C104        C918   1.483       .  S
O105        C110   1.264       .  A
O106        C108   1.272       .  A
C107        O109   1.278       .  A
C107        C822   1.485       .  S
C108        C717   1.503       .  S
C110       C1398   1.480       .  S
Fe111       O127   2.049       .  S
Fe111       O117   2.090       .  S
Fe111       O124   2.105       .  S
Fe111       O116   2.040       .  S
Fe111       O122   1.948       .  S
Fe112       O115   2.037       .  S
Fe112       O119   2.081       .  S
Fe112       O123   2.039       .  S
Fe112       O128   2.078       .  S
Fe112       O122   1.939       .  S
Fe113       O131   2.111       .  S
Fe113       O118   2.070       .  S
Fe113       O125   2.060       .  S
Fe113       O114   2.112       .  S
Fe113       O122   1.951       .  S
O114        C121   1.278       .  A
O115        C129   1.265       .  A
O116        C121   1.267       .  A
O117        C120   1.273       .  A
O118        C130   1.270       .  A
O119        C132   1.269       .  A
C120        O125   1.272       .  A
C120        C694   1.504       .  S
C121        C813   1.488       .  S
O123        C126   1.263       .  A
O124        C126   1.278       .  A
C126       C1078   1.497       .  S
O127        C132   1.266       .  A
O128        C130   1.271       .  A
C129        O131   1.278       .  A
C129        C790   1.477       .  S
C130        C653   1.492       .  S
C132       C1197   1.496       .  S
Fe133       O149   2.052       .  S
Fe133       O139   2.080       .  S
Fe133       O146   2.084       .  S
Fe133       O138   2.047       .  S
Fe133       O144   1.970       .  S
Fe134       O137   2.051       .  S
Fe134       O141   2.072       .  S
Fe134       O145   2.044       .  S
Fe134       O150   2.068       .  S
Fe134       O144   1.965       .  S
Fe135       O153   2.103       .  S
Fe135       O140   2.059       .  S
Fe135       O147   2.065       .  S
Fe135       O136   2.104       .  S
Fe135       O144   1.972       .  S
O136        C143   1.275       .  A
O137        C151   1.268       .  A
O138        C143   1.266       .  A
O139        C142   1.270       .  A
O140        C152   1.269       .  A
O141        C154   1.271       .  A
C142        O147   1.271       .  A
C142        C941   1.499       .  S
C143        C566   1.484       .  S
O145        C148   1.263       .  A
O146        C148   1.272       .  A
C148        C621   1.483       .  S
O149        C154   1.265       .  A
O150        C152   1.267       .  A
C151        O153   1.275       .  A
C151        C525   1.498       .  S
C152        C685   1.486       .  S
C154        C598   1.482       .  S
Fe155       O171   2.053       .  S
Fe155       O161   2.093       .  S
Fe155       O168   2.096       .  S
Fe155       O160   2.057       .  S
Fe155       O166   1.949       .  S
Fe156       O159   2.044       .  S
Fe156       O163   2.084       .  S
Fe156       O167   2.055   1_554  S
Fe156       O172   2.089       .  S
Fe156       O166   1.948   1_554  S
Fe157       O175   2.108   1_556  S
Fe157       O162   2.052       .  S
Fe157       O169   2.047       .  S
Fe157       O158   2.115       .  S
Fe157       O166   1.952       .  S
O158        C165   1.278       .  A
O159        C173   1.265       .  A
O160        C165   1.269       .  A
O161        C164   1.276       .  A
O162        C174   1.268       .  A
O163        C176   1.274       .  A
C164        O169   1.264       .  A
C164        C854   1.496       .  S
C165        C534   1.489       .  S
O167        C170   1.270       .  A
O168        C170   1.274       .  A
C170        C502   1.495       .  S
O171        C176   1.266   1_556  A
O172        C174   1.274   1_554  A
C173        O175   1.276       .  A
C173        C557   1.482       .  S
C174        C749   1.477       .  S
C176        C461   1.485       .  S
Fe177       O193   2.056       .  S
Fe177       O183   2.064       .  S
Fe177       O190   2.071       .  S
Fe177       O182   2.053       .  S
Fe177       O188   1.953       .  S
Fe178       O181   2.043       .  S
Fe178       O185   2.084       .  S
Fe178       O189   2.040       .  S
Fe178       O194   2.074       .  S
Fe178       O188   1.952       .  S
Fe179       O197   2.100       .  S
Fe179       O184   2.071       .  S
Fe179       O191   2.065       .  S
Fe179       O180   2.101       .  S
Fe179       O188   1.960       .  S
O180        C187   1.275       .  A
O181        C195   1.269       .  A
O182        C187   1.268       .  A
O183        C186   1.266       .  A
O184        C196   1.270       .  A
O185        C198   1.270       .  A
C186        O191   1.272       .  A
C186       C1261   1.498       .  S
C187        C406   1.484       .  S
O189        C192   1.264       .  A
O190        C192   1.270       .  A
C192        C429   1.464       .  S
O193        C198   1.268       .  A
O194        C196   1.271       .  A
C195        O197   1.275       .  A
C195        C365   1.488   1_554  S
C196        C726   1.495       .  S
C198        C470   1.493       .  S
Fe199       O215   2.049       .  S
Fe199       O205   2.096       .  S
Fe199       O212   2.099       .  S
Fe199       O204   2.043       .  S
Fe199       O210   1.950       .  S
Fe200       O203   2.046       .  S
Fe200       O207   2.087       .  S
Fe200       O211   2.045       .  S
Fe200       O216   2.089       .  S
Fe200       O210   1.949       .  S
Fe201       O219   2.111       .  S
Fe201       O206   2.056       .  S
Fe201       O213   2.060       .  S
Fe201       O202   2.101       .  S
Fe201       O210   1.951       .  S
O202        C209   1.275       .  A
O203        C217   1.268       .  A
O204        C209   1.266       .  A
O205        C208   1.275       .  A
O206        C218   1.265       .  A
O207        C220   1.272       .  A
C208        O213   1.271       .  A
C208       C1142   1.489       .  S
C209        C374   1.477       .  S
O211        C214   1.267       .  A
O212        C214   1.275       .  A
C214        C333   1.487       .  S
O215        C220   1.267       .  A
O216        C218   1.274       .  A
C217        O219   1.278       .  A
C217        C397   1.490       .  S
C218        C662   1.501       .  S
C220        C589   1.478       .  S
Fe221       O237   2.054       .  S
Fe221       O227   2.079       .  S
Fe221       O234   2.079       .  S
Fe221       O226   2.055       .  S
Fe221       O232   1.951       .  S
Fe222       O225   2.043       .  S
Fe222       O229   2.086       .  S
Fe222       O233   2.037       .  S
Fe222       O238   2.081       .  S
Fe222       O232   1.949       .  S
Fe223       O241   2.105       .  S
Fe223       O228   2.051       .  S
Fe223       O235   2.054       .  S
Fe223       O224   2.107       .  S
Fe223       O232   1.951       .  S
O224        C231   1.277       .  A
O225        C239   1.266       .  A
O226        C231   1.270       .  A
O227        C230   1.272       .  A
O228        C240   1.266       .  A
O229        C242   1.272       .  A
C230        O235   1.266       .  A
C230       C1238   1.493       .  S
C231        C301   1.491       .  S
O233        C236   1.265       .  A
O234        C236   1.270       .  A
C236        C438   1.469       .  S
O237        C242   1.270       .  A
O238        C240   1.274       .  A
C239        O241   1.275       .  A
C239        C269   1.481       .  S
C240        C982   1.497       .  S
C242        C630   1.491       .  S
Fe243       O259   2.064       .  S
Fe243       O249   2.079       .  S
Fe243       O256   2.086       .  S
Fe243       O248   2.063       .  S
Fe243       O254   1.968       .  S
Fe244       O247   2.042       .  S
Fe244       O251   2.076       .  S
Fe244       O255   2.043       .  S
Fe244       O260   2.068       .  S
Fe244       O254   1.967       .  S
Fe245       O263   2.096       .  S
Fe245       O250   2.063       .  S
Fe245       O257   2.063       .  S
Fe245       O246   2.088       .  S
Fe245       O254   1.979       .  S
O246        C253   1.271       .  A
O247        C261   1.264       .  A
O248        C253   1.269       .  A
O249        C252   1.273       .  A
O250        C262   1.269       .  A
O251        C264   1.271       .  A
C252        O257   1.269       .  A
C252       C1110   1.487       .  S
C253        C278   1.489       .  S
O255        C258   1.263       .  A
O256        C258   1.273       .  A
C258        C342   1.487       .  S
O259        C264   1.268       .  A
O260        C262   1.272       .  A
C261        O263   1.271       .  A
C261        C310   1.477       .  S
C262        C886   1.487       .  S
C264        C493   1.485       .  S
C265        C266   1.404       .  A
C265        C270   1.412       .  A
C265        H275   1.082       .  S
C266        C271   1.492       .  S
C266        C267   1.418       .  A
C267        C268   1.407       .  A
C267        C272   1.519       .  S
C268        C269   1.402       .  A
C268        H273   1.083       .  S
C269        C270   1.418       .  A
C270        C274   1.518       .  S
C271        C276   1.418       .  A
C271        C280   1.402       .  A
C272        F288   1.382       .  S
C272        F289   1.383       .  S
C272        F290   1.385       .  S
C274        F285   1.383       .  S
C274        F286   1.385       .  S
C274        F287   1.382       .  S
C276        C277   1.408       .  A
C276        C281   1.520       .  S
C277        C278   1.404       .  A
C277        H282   1.083       .  S
C278        C279   1.422       .  A
C279        C280   1.412       .  A
C279        C283   1.518       .  S
C280        H284   1.083       .  S
C281        F294   1.385       .  S
C281        F295   1.382       .  S
C281        F296   1.383       .  S
C283        F291   1.385       .  S
C283        F292   1.382       .  S
C283        F293   1.382       .  S
C297        C298   1.401       .  A
C297        C302   1.412       .  A
C297        H307   1.082       .  S
C298        C303   1.490       .  S
C298        C299   1.417       .  A
C299        C300   1.408       .  A
C299        C304   1.521       .  S
C300        C301   1.405       .  A
C300        H305   1.081       .  S
C301        C302   1.422       .  A
C302        C306   1.517       .  S
C303        C308   1.417   1_554  A
C303        C312   1.404   1_554  A
C304        F320   1.382       .  S
C304        F321   1.383       .  S
C304        F322   1.384       .  S
C306        F317   1.383       .  S
C306        F318   1.385       .  S
C306        F319   1.382       .  S
C308        C309   1.405       .  A
C308        C313   1.519   1_556  S
C309        C310   1.400       .  A
C309        H314   1.084       .  S
C310        C311   1.418       .  A
C311        C312   1.412       .  A
C311        C315   1.517       .  S
C312        H316   1.083   1_556  S
C313        F326   1.385   1_554  S
C313        F327   1.382       .  S
C313        F328   1.382       .  S
C315        F323   1.385       .  S
C315        F324   1.383       .  S
C315        F325   1.382       .  S
C329        C330   1.404       .  A
C329        C334   1.410       .  A
C329        H339   1.084       .  S
C330        C335   1.484       .  S
C330        C331   1.412       .  A
C331        C332   1.404       .  A
C331        C336   1.520       .  S
C332        C333   1.408       .  A
C332        H337   1.083       .  S
C333        C334   1.419       .  A
C334        C338   1.518       .  S
C335        C340   1.415       .  A
C335        C344   1.400       .  A
C336        F352   1.383       .  S
C336        F353   1.382       .  S
C336        F354   1.384       .  S
C338        F349   1.382       .  S
C338        F350   1.385       .  S
C338        F351   1.383       .  S
C340        C341   1.406       .  A
C340        C345   1.520       .  S
C341        C342   1.406       .  A
C341        H346   1.083       .  S
C342        C343   1.424       .  A
C343        C344   1.409       .  A
C343        C347   1.521       .  S
C344        H348   1.083       .  S
C345        F358   1.384       .  S
C345        F359   1.382       .  S
C345        F360   1.382       .  S
C347        F355   1.383       .  S
C347        F356   1.384       .  S
C347        F357   1.385       .  S
C361        C362   1.402       .  A
C361        C366   1.412       .  A
C361        H371   1.084       .  S
C362        C367   1.485       .  S
C362        C363   1.415       .  A
C363        C364   1.403       .  A
C363        C368   1.522       .  S
C364        C365   1.405       .  A
C364        H369   1.083       .  S
C365        C366   1.423       .  A
C366        C370   1.519   1_556  S
C367        C372   1.416       .  A
C367        C376   1.402       .  A
C368        F384   1.382       .  S
C368        F385   1.383       .  S
C368        F386   1.385       .  S
C370        F381   1.383       .  S
C370        F382   1.385   1_554  S
C370        F383   1.383       .  S
C372        C373   1.406       .  A
C372        C377   1.520       .  S
C373        C374   1.403       .  A
C373        H378   1.083       .  S
C374        C375   1.417       .  A
C375        C376   1.409       .  A
C375        C379   1.518       .  S
C376        H380   1.083       .  S
C377        F390   1.385       .  S
C377        F391   1.382       .  S
C377        F392   1.382       .  S
C379        F387   1.385       .  S
C379        F388   1.382       .  S
C379        F389   1.383       .  S
C393        C394   1.401       .  A
C393        C398   1.411       .  A
C393        H403   1.083       .  S
C394        C399   1.488       .  S
C394        C395   1.416       .  A
C395        C396   1.407       .  A
C395        C400   1.521       .  S
C396        C397   1.406       .  A
C396        H401   1.084       .  S
C397        C398   1.423       .  A
C398        C402   1.517       .  S
C399        C404   1.416       .  A
C399        C408   1.401       .  A
C400        F416   1.382       .  S
C400        F417   1.382       .  S
C400        F418   1.385       .  S
C402        F413   1.382       .  S
C402        F414   1.384       .  S
C402        F415   1.382       .  S
C404        C405   1.408       .  A
C404        C409   1.519       .  S
C405        C406   1.404       .  A
C405        H410   1.083       .  S
C406        C407   1.420       .  A
C407        C408   1.411       .  A
C407        C411   1.517       .  S
C408        H412   1.083       .  S
C409        F422   1.384       .  S
C409        F423   1.383       .  S
C409        F424   1.382       .  S
C411        F419   1.385       .  S
C411        F420   1.383       .  S
C411        F421   1.379       .  S
C425        C426   1.402       .  A
C425        C430   1.402       .  A
C425        H435   1.084       .  S
C426        C431   1.472       .  S
C426        C427   1.414       .  A
C427        C428   1.401       .  A
C427        C432   1.521       .  S
C428        C429   1.402       .  A
C428        H433   1.084       .  S
C429        C430   1.413       .  A
C430        C434   1.519       .  S
C431        C436   1.412       .  A
C431        C440   1.403       .  A
C432        F448   1.382       .  S
C432        F449   1.382       .  S
C432        F450   1.385       .  S
C434        F445   1.385       .  S
C434        F446   1.382       .  S
C434        F447   1.384       .  S
C436        C437   1.400       .  A
C436        C441   1.521       .  S
C437        C438   1.404       .  A
C437        H442   1.084       .  S
C438        C439   1.414       .  A
C439        C440   1.405       .  A
C439        C443   1.517       .  S
C440        H444   1.083       .  S
C441        F454   1.384       .  S
C441        F455   1.382       .  S
C441        F456   1.382       .  S
C443        F451   1.384       .  S
C443        F452   1.383       .  S
C443        F453   1.383       .  S
C457        C458   1.402       .  A
C457        C462   1.409       .  A
C457        H467   1.083       .  S
C458        C463   1.485       .  S
C458        C459   1.416       .  A
C459        C460   1.404       .  A
C459        C464   1.521       .  S
C460        C461   1.406       .  A
C460        H465   1.083       .  S
C461        C462   1.422       .  A
C462        C466   1.520       .  S
C463        C468   1.413       .  A
C463        C472   1.401       .  A
C464        F480   1.382       .  S
C464        F481   1.382       .  S
C464        F482   1.385       .  S
C466        F477   1.385       .  S
C466        F478   1.382   1_554  S
C466        F479   1.384       .  S
C468        C469   1.407       .  A
C468        C473   1.520       .  S
C469        C470   1.410       .  A
C469        H474   1.082       .  S
C470        C471   1.423       .  A
C471        C472   1.408       .  A
C471        C475   1.519       .  S
C472        H476   1.083       .  S
C473        F486   1.384       .  S
C473        F487   1.382       .  S
C473        F488   1.383       .  S
C475        F483   1.385   1_554  S
C475        F484   1.382       .  S
C475        F485   1.383       .  S
C489        C490   1.404       .  A
C489        C494   1.410       .  A
C489        H499   1.083       .  S
C490        C495   1.489       .  S
C490        C491   1.417       .  A
C491        C492   1.408       .  A
C491        C496   1.520       .  S
C492        C493   1.405       .  A
C492        H497   1.084       .  S
C493        C494   1.419       .  A
C494        C498   1.519       .  S
C495        C500   1.414       .  A
C495        C504   1.403       .  A
C496        F512   1.382       .  S
C496        F513   1.382       .  S
C496        F514   1.385       .  S
C498        F509   1.385       .  S
C498        F510   1.382       .  S
C498        F511   1.384       .  S
C500        C501   1.408       .  A
C500        C505   1.521       .  S
C501        C502   1.410       .  A
C501        H506   1.083       .  S
C502        C503   1.422       .  A
C503        C504   1.410       .  A
C503        C507   1.519       .  S
C504        H508   1.083       .  S
C505        F518   1.385   1_556  S
C505        F519   1.382       .  S
C505        F520   1.382       .  S
C507        F515   1.385       .  S
C507        F516   1.383       .  S
C507        F517   1.383       .  S
C521        C522   1.404       .  A
C521        C526   1.416       .  A
C521        H531   1.083       .  S
C522        C527   1.494       .  S
C522        C523   1.416       .  A
C523        C524   1.407       .  A
C523        C528   1.521       .  S
C524        C525   1.408       .  A
C524        H529   1.084       .  S
C525        C526   1.424       .  A
C526        C530   1.519       .  S
C527        C532   1.417       .  A
C527        C536   1.402       .  A
C528        F544   1.382       .  S
C528        F545   1.382       .  S
C528        F546   1.385       .  S
C530        F541   1.384       .  S
C530        F542   1.383       .  S
C530        F543   1.382       .  S
C532        C533   1.411       .  A
C532        C537   1.519       .  S
C533        C534   1.405       .  A
C533        H538   1.083       .  S
C534        C535   1.421       .  A
C535        C536   1.412       .  A
C535        C539   1.517       .  S
C536        H540   1.083       .  S
C537        F550   1.384       .  S
C537        F551   1.383       .  S
C537        F552   1.382       .  S
C539        F547   1.385       .  S
C539        F548   1.382       .  S
C539        F549   1.381       .  S
C553        C554   1.403       .  A
C553        C558   1.406       .  A
C553        H563   1.084       .  S
C554        C559   1.491       .  S
C554        C555   1.418       .  A
C555        C556   1.412       .  A
C555        C560   1.518       .  S
C556        C557   1.405       .  A
C556        H561   1.084       .  S
C557        C558   1.417       .  A
C558        C562   1.520       .  S
C559        C564   1.418       .  A
C559        C568   1.403       .  A
C560        F576   1.382       .  S
C560        F577   1.382       .  S
C560        F578   1.384       .  S
C562        F573   1.385       .  S
C562        F574   1.382       .  S
C562        F575   1.383       .  S
C564        C565   1.412       .  A
C564        C569   1.517       .  S
C565        C566   1.403       .  A
C565        H570   1.084       .  S
C566        C567   1.418       .  A
C567        C568   1.407       .  A
C567        C571   1.519       .  S
C568        H572   1.083       .  S
C569        F582   1.384       .  S
C569        F583   1.382       .  S
C569        F584   1.382       .  S
C571        F579   1.381       .  S
C571        F580   1.384       .  S
C571        F581   1.385       .  S
C585        C586   1.401       .  A
C585        C590   1.404       .  A
C585        H595   1.083       .  S
C586        C591   1.481       .  S
C586        C587   1.415       .  A
C587        C588   1.406       .  A
C587        C592   1.520       .  S
C588        C589   1.404       .  A
C588        H593   1.082       .  S
C589        C590   1.419       .  A
C590        C594   1.520       .  S
C591        C596   1.415       .  A
C591        C600   1.400       .  A
C592        F608   1.382       .  S
C592        F609   1.383       .  S
C592        F610   1.384       .  S
C594        F605   1.383       .  S
C594        F606   1.385       .  S
C594        F607   1.382       .  S
C596        C597   1.405       .  A
C596        C601   1.520       .  S
C597        C598   1.405       .  A
C597        H602   1.082       .  S
C598        C599   1.423       .  A
C599        C600   1.405       .  A
C599        C603   1.521       .  S
C600        H604   1.082       .  S
C601        F614   1.385       .  S
C601        F615   1.382       .  S
C601        F616   1.382       .  S
C603        F611   1.385       .  S
C603        F612   1.383       .  S
C603        F613   1.383       .  S
C617        C618   1.400       .  A
C617        C622   1.405       .  A
C617        H627   1.085       .  S
C618        C623   1.483       .  S
C618        C619   1.416       .  A
C619        C620   1.406       .  A
C619        C624   1.520       .  S
C620        C621   1.405       .  A
C620        H625   1.084       .  S
C621        C622   1.421       .  A
C622        C626   1.520       .  S
C623        C628   1.412       .  A
C623        C632   1.402       .  A
C624        F640   1.382       .  S
C624        F641   1.382       .  S
C624        F642   1.385       .  S
C626        F637   1.383       .  S
C626        F638   1.385       .  S
C626        F639   1.382       .  S
C628        C629   1.404       .  A
C628        C633   1.520       .  S
C629        C630   1.409       .  A
C629        H634   1.082       .  S
C630        C631   1.424       .  A
C631        C632   1.409       .  A
C631        C635   1.520       .  S
C632        H636   1.083       .  S
C633        F646   1.385       .  S
C633        F647   1.382       .  S
C633        F648   1.382       .  S
C635        F643   1.383       .  S
C635        F644   1.383       .  S
C635        F645   1.385       .  S
C649        C650   1.403       .  A
C649        C654   1.410       .  A
C649        H659   1.082       .  S
C650        C655   1.488       .  S
C650        C651   1.415       .  A
C651        C652   1.407       .  A
C651        C656   1.521       .  S
C652        C653   1.409       .  A
C652        H657   1.083       .  S
C653        C654   1.421       .  A
C654        C658   1.518       .  S
C655        C660   1.414       .  A
C655        C664   1.398       .  A
C656        F672   1.382       .  S
C656        F673   1.382       .  S
C656        F674   1.385       .  S
C658        F669   1.384       .  S
C658        F670   1.385       .  S
C658        F671   1.383       .  S
C660        C661   1.410       .  A
C660        C665   1.519       .  S
C661        C662   1.412       .  A
C661        H666   1.082       .  S
C662        C663   1.429       .  A
C663        C664   1.408       .  A
C663        C667   1.522       .  S
C664        H668   1.082       .  S
C665        F678   1.385       .  S
C665        F679   1.382       .  S
C665        F680   1.382       .  S
C667        F675   1.383       .  S
C667        F676   1.383       .  S
C667        F677   1.385       .  S
C681        C682   1.400       .  A
C681        C686   1.408       .  A
C681        H691   1.082       .  S
C682        C687   1.484   1_545  S
C682        C683   1.414       .  A
C683        C684   1.405       .  A
C683        C688   1.519       .  S
C684        C685   1.406       .  A
C684        H689   1.083       .  S
C685        C686   1.424       .  A
C686        C690   1.521       .  S
C687        C692   1.412       .  A
C687        C696   1.398       .  A
C688        F704   1.382   1_545  S
C688        F705   1.382   1_545  S
C688        F706   1.385       .  S
C690        F701   1.384       .  S
C690        F702   1.383       .  S
C690        F703   1.382       .  S
C692        C693   1.406       .  A
C692        C697   1.521       .  S
C693        C694   1.413       .  A
C693        H698   1.082       .  S
C694        C695   1.430       .  A
C695        C696   1.410       .  A
C695        C699   1.520       .  S
C696        H700   1.084       .  S
C697        F710   1.384       .  S
C697        F711   1.383   1_565  S
C697        F712   1.382   1_565  S
C699        F707   1.385       .  S
C699        F708   1.383       .  S
C699        F709   1.383       .  S
C713        C714   1.399       .  A
C713        C718   1.407       .  A
C713        H723   1.083       .  S
C714        C719   1.488       .  S
C714        C715   1.413       .  A
C715        C716   1.411       .  A
C715        C720   1.520       .  S
C716        C717   1.413       .  A
C716        H721   1.082       .  S
C717        C718   1.428       .  A
C718        C722   1.522       .  S
C719        C724   1.414       .  A
C719        C728   1.403       .  A
C720        F736   1.382       .  S
C720        F737   1.381       .  S
C720        F738   1.385       .  S
C722        F733   1.383   1_554  S
C722        F734   1.385       .  S
C722        F735   1.383       .  S
C724        C725   1.408       .  A
C724        C729   1.520       .  S
C725        C726   1.410       .  A
C725        H730   1.081       .  S
C726        C727   1.422       .  A
C727        C728   1.410       .  A
C727        C731   1.518       .  S
C728        H732   1.082       .  S
C729        F742   1.385   1_554  S
C729        F743   1.382   1_554  S
C729        F744   1.381       .  S
C731        F739   1.383       .  S
C731        F740   1.384       .  S
C731        F741   1.385       .  S
C745        C746   1.403       .  A
C745        C750   1.407       .  A
C745        H755   1.083       .  S
C746        C751   1.483   1_546  S
C746        C747   1.416   1_556  A
C747        C748   1.406       .  A
C747        C752   1.521       .  S
C748        C749   1.404   1_554  A
C748        H753   1.084       .  S
C749        C750   1.416       .  A
C750        C754   1.518       .  S
C751        C756   1.414       .  A
C751        C760   1.399       .  A
C752        F768   1.382       .  S
C752        F769   1.382       .  S
C752        F770   1.384       .  S
C754        F765   1.384       .  S
C754        F766   1.383       .  S
C754        F767   1.384       .  S
C756        C757   1.408       .  A
C756        C761   1.519       .  S
C757        C758   1.407       .  A
C757        H762   1.084       .  S
C758        C759   1.424       .  A
C759        C760   1.405       .  A
C759        C763   1.522       .  S
C760        H764   1.084   1_554  S
C761        F774   1.384       .  S
C761        F775   1.382   1_554  S
C761        F776   1.382       .  S
C763        F771   1.385   1_554  S
C763        F772   1.383   1_554  S
C763        F773   1.383       .  S
C777        C778   1.402       .  A
C777        C782   1.405       .  A
C777        H787   1.083       .  S
C778        C783   1.490       .  S
C778        C779   1.417       .  A
C779        C780   1.413       .  A
C779        C784   1.518       .  S
C780        C781   1.406       .  A
C780        H785   1.082       .  S
C781        C782   1.419       .  A
C782        C786   1.519       .  S
C783        C788   1.418       .  A
C783        C792   1.405       .  A
C784        F800   1.382       .  S
C784        F801   1.382       .  S
C784        F802   1.384       .  S
C786        F797   1.383       .  S
C786        F798   1.385       .  S
C786        F799   1.382       .  S
C788        C789   1.409       .  A
C788        C793   1.519       .  S
C789        C790   1.403       .  A
C789        H794   1.083       .  S
C790        C791   1.416       .  A
C791        C792   1.408       .  A
C791        C795   1.519       .  S
C792        H796   1.083       .  S
C793        F806   1.385       .  S
C793        F807   1.382       .  S
C793        F808   1.381       .  S
C795        F803   1.384       .  S
C795        F804   1.383       .  S
C795        F805   1.384       .  S
C809        C810   1.403       .  A
C809        C814   1.413       .  A
C809        H819   1.082       .  S
C810        C815   1.488       .  S
C810        C811   1.416       .  A
C811        C812   1.406       .  A
C811        C816   1.521       .  S
C812        C813   1.406       .  A
C812        H817   1.083       .  S
C813        C814   1.421       .  A
C814        C818   1.518       .  S
C815        C820   1.416       .  A
C815        C824   1.402       .  A
C816        F832   1.382       .  S
C816        F833   1.382       .  S
C816        F834   1.385       .  S
C818        F829   1.383       .  S
C818        F830   1.385       .  S
C818        F831   1.383       .  S
C820        C821   1.407       .  A
C820        C825   1.520       .  S
C821        C822   1.405       .  A
C821        H826   1.084       .  S
C822        C823   1.420       .  A
C823        C824   1.411       .  A
C823        C827   1.518       .  S
C824        H828   1.083       .  S
C825        F838   1.385       .  S
C825        F839   1.382       .  S
C825        F840   1.382       .  S
C827        F835   1.384       .  S
C827        F836   1.383       .  S
C827        F837   1.383       .  S
C841        C842   1.402       .  A
C841        C846   1.406       .  A
C841        H851   1.084       .  S
C842        C847   1.483   1_455  S
C842        C843   1.416       .  A
C843        C844   1.405       .  A
C843        C848   1.521       .  S
C844        C845   1.404       .  A
C844        H849   1.085       .  S
C845        C846   1.416       .  A
C846        C850   1.518       .  S
C847        C852   1.412       .  A
C847        C856   1.397       .  A
C848        F864   1.382   1_556  S
C848        F865   1.382   1_556  S
C848        F866   1.385   1_556  S
C850        F861   1.384       .  S
C850        F862   1.382       .  S
C850        F863   1.383       .  S
C852        C853   1.407       .  A
C852        C857   1.519       .  S
C853        C854   1.410       .  A
C853        H858   1.084       .  S
C854        C855   1.429       .  A
C855        C856   1.406       .  A
C855        C859   1.523       .  S
C856        H860   1.084       .  S
C857        F870   1.384       .  S
C857        F871   1.382       .  S
C857        F872   1.383       .  S
C859        F867   1.383       .  S
C859        F868   1.384   1_556  S
C859        F869   1.385       .  S
C873        C874   1.397       .  A
C873        C878   1.406       .  A
C873        H883   1.083       .  S
C874        C879   1.481       .  S
C874        C875   1.410       .  A
C875        C876   1.406       .  A
C875        C880   1.520       .  S
C876        C877   1.413       .  A
C876        H881   1.082       .  S
C877        C878   1.430       .  A
C878        C882   1.523       .  S
C879        C884   1.413       .  A
C879        C888   1.402       .  A
C880        F896   1.382       .  S
C880        F897   1.382       .  S
C880        F898   1.384       .  S
C882        F893   1.384       .  S
C882        F894   1.385       .  S
C882        F895   1.384       .  S
C884        C885   1.402       .  A
C884        C889   1.521       .  S
C885        C886   1.407       .  A
C885        H890   1.084       .  S
C886        C887   1.422       .  A
C887        C888   1.408       .  A
C887        C891   1.520       .  S
C888        H892   1.084       .  S
C889        F902   1.384       .  S
C889        F903   1.382       .  S
C889        F904   1.382       .  S
C891        F899   1.382       .  S
C891        F900   1.384       .  S
C891        F901   1.385       .  S
C905        C906   1.400       .  A
C905        C910   1.406       .  A
C905        H915   1.082   1_556  S
C906        C911   1.479       .  S
C906        C907   1.412       .  A
C907        C908   1.403       .  A
C907        C912   1.521       .  S
C908        C909   1.409       .  A
C908        H913   1.081       .  S
C909        C910   1.425       .  A
C910        C914   1.520       .  S
C911        C916   1.415       .  A
C911        C920   1.399       .  A
C912        F928   1.381       .  S
C912        F929   1.382       .  S
C912        F930   1.385       .  S
C914        F925   1.383       .  S
C914        F926   1.385   1_556  S
C914        F927   1.382   1_556  S
C916        C917   1.404       .  A
C916        C921   1.521       .  S
C917        C918   1.406       .  A
C917        H922   1.083       .  S
C918        C919   1.423       .  A
C919        C920   1.404       .  A
C919        C923   1.521       .  S
C920        H924   1.083       .  S
C921        F934   1.385       .  S
C921        F935   1.382       .  S
C921        F936   1.382       .  S
C923        F931   1.385       .  S
C923        F932   1.382   1_556  S
C923        F933   1.383       .  S
C937        C938   1.400       .  A
C937        C942   1.411       .  A
C937        H947   1.082       .  S
C938        C943   1.487   1_655  S
C938        C939   1.413       .  A
C939        C940   1.406       .  A
C939        C944   1.520       .  S
C940        C941   1.410       .  A
C940        H945   1.081       .  S
C941        C942   1.427       .  A
C942        C946   1.520       .  S
C943        C948   1.415       .  A
C943        C952   1.398       .  A
C944        F960   1.383   1_655  S
C944        F961   1.382   1_655  S
C944        F962   1.384       .  S
C946        F957   1.382       .  S
C946        F958   1.385       .  S
C946        F959   1.384       .  S
C948        C949   1.410       .  A
C948        C953   1.518       .  S
C949        C950   1.406       .  A
C949        H954   1.083       .  S
C950        C951   1.427       .  A
C951        C952   1.408       .  A
C951        C955   1.520       .  S
C952        H956   1.083       .  S
C953        F966   1.384       .  S
C953        F967   1.383   1_455  S
C953        F968   1.382   1_455  S
C955        F963   1.383       .  S
C955        F964   1.379       .  S
C955        F965   1.385       .  S
C969        C970   1.402       .  A
C969        C974   1.408       .  A
C969        H979   1.083       .  S
C970        C975   1.481       .  S
C970        C971   1.412       .  A
C971        C972   1.403       .  A
C971        C976   1.521       .  S
C972        C973   1.410       .  A
C972        H977   1.082       .  S
C973        C974   1.423       .  A
C974        C978   1.520       .  S
C975        C980   1.411       .  A
C975        C984   1.398       .  A
C976        F992   1.382       .  S
C976        F993   1.382       .  S
C976        F994   1.385       .  S
C978        F989   1.385       .  S
C978        F990   1.383       .  S
C978        F991   1.383       .  S
C980        C981   1.406       .  A
C980        C985   1.520       .  S
C981        C982   1.412       .  A
C981        H986   1.082       .  S
C982        C983   1.428       .  A
C983        C984   1.406       .  A
C983        C987   1.522       .  S
C984        H988   1.084       .  S
C985        F998   1.385       .  S
C985        F999   1.382       .  S
C985       F1000   1.382       .  S
C987        F995   1.385       .  S
C987        F996   1.383       .  S
C987        F997   1.384       .  S
C1001      C1002   1.402       .  A
C1001      C1006   1.405       .  A
C1001      H1011   1.085       .  S
C1002      C1007   1.490       .  S
C1002      C1003   1.417       .  A
C1003      C1004   1.413       .  A
C1003      C1008   1.519       .  S
C1004      C1005   1.406       .  A
C1004      H1009   1.084       .  S
C1005      C1006   1.420       .  A
C1006      C1010   1.518       .  S
C1007      C1012   1.416       .  A
C1007      C1016   1.405       .  A
C1008      F1024   1.382       .  S
C1008      F1025   1.381       .  S
C1008      F1026   1.384       .  S
C1010      F1021   1.384       .  S
C1010      F1022   1.383       .  S
C1010      F1023   1.382       .  S
C1012      C1013   1.413       .  A
C1012      C1017   1.520       .  S
C1013      C1014   1.407       .  A
C1013      H1018   1.069       .  S
C1014      C1015   1.418       .  A
C1015      C1016   1.408       .  A
C1015      C1019   1.519       .  S
C1016      H1020   1.072       .  S
C1017      F1030   1.385       .  S
C1017      F1031   1.382       .  S
C1017      F1032   1.381       .  S
C1019      F1027   1.383       .  S
C1019      F1028   1.383       .  S
C1019      F1029   1.384       .  S
C1033      C1034   1.402       .  A
C1033      C1038   1.410       .  A
C1033      H1043   1.082       .  S
C1034      C1039   1.491       .  S
C1034      C1035   1.418       .  A
C1035      C1036   1.410       .  A
C1035      C1040   1.518       .  S
C1036      C1037   1.402       .  A
C1036      H1041   1.082       .  S
C1037      C1038   1.419       .  A
C1038      C1042   1.516       .  S
C1039      C1044   1.415       .  A
C1039      C1048   1.403       .  A
C1040      F1056   1.383       .  S
C1040      F1057   1.382       .  S
C1040      F1058   1.384       .  S
C1042      F1053   1.380       .  S
C1042      F1054   1.385       .  S
C1042      F1055   1.383       .  S
C1044      C1045   1.405       .  A
C1044      C1049   1.522       .  S
C1045      C1046   1.408       .  A
C1045      H1050   1.082       .  S
C1046      C1047   1.424       .  A
C1047      C1048   1.416       .  A
C1047      C1051   1.517       .  S
C1048      H1052   1.083       .  S
C1049      F1062   1.384       .  S
C1049      F1063   1.382       .  S
C1049      F1064   1.382       .  S
C1051      F1059   1.385       .  S
C1051      F1060   1.384   1_554  S
C1051      F1061   1.383   1_554  S
C1065      C1066   1.400       .  A
C1065      C1070   1.406       .  A
C1065      H1075   1.085       .  S
C1066      C1071   1.483       .  S
C1066      C1067   1.414       .  A
C1067      C1068   1.406       .  A
C1067      C1072   1.519       .  S
C1068      C1069   1.408       .  A
C1068      H1073   1.084       .  S
C1069      C1070   1.424       .  A
C1070      C1074   1.521       .  S
C1071      C1076   1.417       .  A
C1071      C1080   1.397       .  A
C1072      F1088   1.382       .  S
C1072      F1089   1.383       .  S
C1072      F1090   1.385       .  S
C1074      F1085   1.385       .  S
C1074      F1086   1.383       .  S
C1074      F1087   1.383       .  S
C1076      C1077   1.406       .  A
C1076      C1081   1.520       .  S
C1077      C1078   1.408       .  A
C1077      H1082   1.083       .  S
C1078      C1079   1.431       .  A
C1079      C1080   1.406       .  A
C1079      C1083   1.524       .  S
C1080      H1084   1.082       .  S
C1081      F1094   1.383       .  S
C1081      F1095   1.383       .  S
C1081      F1096   1.382       .  S
C1083      F1091   1.385       .  S
C1083      F1092   1.383       .  S
C1083      F1093   1.384       .  S
C1097      C1098   1.400       .  A
C1097      C1102   1.408       .  A
C1097      H1107   1.083       .  S
C1098      C1103   1.484   1_565  S
C1098      C1099   1.412       .  A
C1099      C1100   1.407       .  A
C1099      C1104   1.520       .  S
C1100      C1101   1.412       .  A
C1100      H1105   1.082       .  S
C1101      C1102   1.427       .  A
C1102      C1106   1.522       .  S
C1103      C1108   1.415       .  A
C1103      C1112   1.402       .  A
C1104      F1120   1.382       .  S
C1104      F1121   1.381       .  S
C1104      F1122   1.385       .  S
C1106      F1117   1.385       .  S
C1106      F1118   1.384       .  S
C1106      F1119   1.383       .  S
C1108      C1109   1.407       .  A
C1108      C1113   1.521       .  S
C1109      C1110   1.407       .  A
C1109      H1114   1.083       .  S
C1110      C1111   1.420       .  A
C1111      C1112   1.407       .  A
C1111      C1115   1.519       .  S
C1112      H1116   1.084       .  S
C1113      F1126   1.385       .  S
C1113      F1127   1.382       .  S
C1113      F1128   1.381       .  S
C1115      F1123   1.385       .  S
C1115      F1124   1.382       .  S
C1115      F1125   1.383       .  S
C1129      C1130   1.402       .  A
C1129      C1134   1.408       .  A
C1129      H1139   1.083       .  S
C1130      C1135   1.491   1_455  S
C1130      C1131   1.417       .  A
C1131      C1132   1.411       .  A
C1131      C1136   1.518       .  S
C1132      C1133   1.404       .  A
C1132      H1137   1.083       .  S
C1133      C1134   1.418       .  A
C1134      C1138   1.517       .  S
C1135      C1140   1.416       .  A
C1135      C1144   1.404       .  A
C1136      F1152   1.383   1_455  S
C1136      F1153   1.382   1_455  S
C1136      F1154   1.384       .  S
C1138      F1149   1.385       .  S
C1138      F1150   1.382       .  S
C1138      F1151   1.381       .  S
C1140      C1141   1.407       .  A
C1140      C1145   1.521       .  S
C1141      C1142   1.405       .  A
C1141      H1146   1.082       .  S
C1142      C1143   1.420       .  A
C1143      C1144   1.414       .  A
C1143      C1147   1.517       .  S
C1144      H1148   1.082       .  S
C1145      F1158   1.384       .  S
C1145      F1159   1.382   1_655  S
C1145      F1160   1.382   1_655  S
C1147      F1155   1.384       .  S
C1147      F1156   1.383       .  S
C1147      F1157   1.382       .  S
C1161      C1162   1.396       .  A
C1161      C1166   1.404       .  A
C1161      H1171   1.084       .  S
C1162      C1167   1.479       .  S
C1162      C1163   1.413       .  A
C1163      C1164   1.407       .  A
C1163      C1168   1.519       .  S
C1164      C1165   1.407       .  A
C1164      H1169   1.084       .  S
C1165      C1166   1.427       .  A
C1166      C1170   1.521       .  S
C1167      C1172   1.415       .  A
C1167      C1176   1.397       .  A
C1168      F1184   1.383       .  S
C1168      F1185   1.382       .  S
C1168      F1186   1.384       .  S
C1170      F1181   1.385       .  S
C1170      F1182   1.383       .  S
C1170      F1183   1.380       .  S
C1172      C1173   1.408       .  A
C1172      C1177   1.519       .  S
C1173      C1174   1.405       .  A
C1173      H1178   1.084       .  S
C1174      C1175   1.423       .  A
C1175      C1176   1.402       .  A
C1175      C1179   1.522       .  S
C1176      H1180   1.085       .  S
C1177      F1190   1.384       .  S
C1177      F1191   1.383       .  S
C1177      F1192   1.381       .  S
C1179      F1187   1.385       .  S
C1179      F1188   1.383       .  S
C1179      F1189   1.382       .  S
C1193      C1194   1.398       .  A
C1193      C1198   1.405       .  A
C1193      H1203   1.082       .  S
C1194      C1199   1.478       .  S
C1194      C1195   1.410       .  A
C1195      C1196   1.407       .  A
C1195      C1200   1.520       .  S
C1196      C1197   1.413       .  A
C1196      H1201   1.080       .  S
C1197      C1198   1.427       .  A
C1198      C1202   1.521       .  S
C1199      C1204   1.414       .  A
C1199      C1208   1.398       .  A
C1200      F1216   1.382       .  S
C1200      F1217   1.381       .  S
C1200      F1218   1.385       .  S
C1202      F1213   1.383       .  S
C1202      F1214   1.385       .  S
C1202      F1215   1.384       .  S
C1204      C1205   1.404       .  A
C1204      C1209   1.520       .  S
C1205      C1206   1.406       .  A
C1205      H1210   1.082       .  S
C1206      C1207   1.428       .  A
C1207      C1208   1.406       .  A
C1207      C1211   1.523       .  S
C1208      H1212   1.084       .  S
C1209      F1222   1.385       .  S
C1209      F1223   1.382       .  S
C1209      F1224   1.381       .  S
C1211      F1219   1.384       .  S
C1211      F1220   1.383       .  S
C1211      F1221   1.385       .  S
C1225      C1226   1.402       .  A
C1225      C1230   1.408       .  A
C1225      H1235   1.083       .  S
C1226      C1231   1.480   1_565  S
C1226      C1227   1.413       .  A
C1227      C1228   1.404       .  A
C1227      C1232   1.520       .  S
C1228      C1229   1.406       .  A
C1228      H1233   1.083       .  S
C1229      C1230   1.421       .  A
C1230      C1234   1.520       .  S
C1231      C1236   1.412       .  A
C1231      C1240   1.397       .  A
C1232      F1248   1.382       .  S
C1232      F1249   1.382       .  S
C1232      F1250   1.384       .  S
C1234      F1245   1.384       .  S
C1234      F1246   1.385       .  S
C1234      F1247   1.383       .  S
C1236      C1237   1.407       .  A
C1236      C1241   1.520       .  S
C1237      C1238   1.411       .  A
C1237      H1242   1.082       .  S
C1238      C1239   1.427       .  A
C1239      C1240   1.404       .  A
C1239      C1243   1.522       .  S
C1240      H1244   1.083       .  S
C1241      F1254   1.385       .  S
C1241      F1255   1.382       .  S
C1241      F1256   1.382       .  S
C1243      F1251   1.382       .  S
C1243      F1252   1.383       .  S
C1243      F1253   1.385       .  S
C1257      C1258   1.396       .  A
C1257      C1262   1.406       .  A
C1257      H1267   1.083       .  S
C1258      C1263   1.480   1_655  S
C1258      C1259   1.411       .  A
C1259      C1260   1.405       .  A
C1259      C1264   1.520       .  S
C1260      C1261   1.412       .  A
C1260      H1265   1.082       .  S
C1261      C1262   1.433       .  A
C1262      C1266   1.525       .  S
C1263      C1268   1.411       .  A
C1263      C1272   1.398       .  A
C1264      F1280   1.382       .  S
C1264      F1281   1.382   1_655  S
C1264      F1282   1.385       .  S
C1266      F1277   1.382       .  S
C1266      F1278   1.385       .  S
C1266      F1279   1.383       .  S
C1268      C1269   1.403       .  A
C1268      C1273   1.522       .  S
C1269      C1270   1.411       .  A
C1269      H1274   1.082       .  S
C1270      C1271   1.429       .  A
C1271      C1272   1.409       .  A
C1271      C1275   1.523       .  S
C1272      H1276   1.082       .  S
C1273      F1286   1.384       .  S
C1273      F1287   1.382   1_455  S
C1273      F1288   1.382   1_455  S
C1275      F1283   1.383       .  S
C1275      F1284   1.382       .  S
C1275      F1285   1.385       .  S
C1289      C1290   1.403   1_554  A
C1289      C1294   1.413       .  A
C1289      H1299   1.083   1_554  S
C1290      C1295   1.490       .  S
C1290      C1291   1.415       .  A
C1291      C1292   1.406   1_556  A
C1291      C1296   1.520       .  S
C1292      C1293   1.404       .  A
C1292      H1297   1.079       .  S
C1293      C1294   1.422       .  A
C1294      C1298   1.518       .  S
C1295      C1300   1.416       .  A
C1295      C1304   1.403       .  A
C1296      F1312   1.383       .  S
C1296      F1313   1.382       .  S
C1296      F1314   1.385       .  S
C1298      F1309   1.380       .  S
C1298      F1310   1.385       .  S
C1298      F1311   1.383       .  S
C1300      C1301   1.407       .  A
C1300      C1305   1.520       .  S
C1301      C1302   1.405       .  A
C1301      H1306   1.084       .  S
C1302      C1303   1.420       .  A
C1303      C1304   1.413       .  A
C1303      C1307   1.517       .  S
C1304      H1308   1.084       .  S
C1305      F1318   1.385       .  S
C1305      F1319   1.382       .  S
C1305      F1320   1.382       .  S
C1307      F1315   1.383       .  S
C1307      F1316   1.382       .  S
C1307      F1317   1.384       .  S
C1321      C1322   1.406       .  A
C1321      C1326   1.409       .  A
C1321      H1331   1.082       .  S
C1322      C1327   1.490       .  S
C1322      C1323   1.418       .  A
C1323      C1324   1.408       .  A
C1323      C1328   1.519       .  S
C1324      C1325   1.402       .  A
C1324      H1329   1.083       .  S
C1325      C1326   1.413       .  A
C1326      C1330   1.517       .  S
C1327      C1332   1.415       .  A
C1327      C1336   1.399       .  A
C1328      F1344   1.382       .  S
C1328      F1345   1.381       .  S
C1328      F1346   1.384       .  S
C1330      F1341   1.385       .  S
C1330      F1342   1.380       .  S
C1330      F1343   1.383       .  S
C1332      C1333   1.412       .  A
C1332      C1337   1.518       .  S
C1333      C1334   1.408       .  A
C1333      H1338   1.083       .  S
C1334      C1335   1.428       .  A
C1335      C1336   1.405       .  A
C1335      C1339   1.523       .  S
C1336      H1340   1.085       .  S
C1337      F1350   1.384       .  S
C1337      F1351   1.382       .  S
C1337      F1352   1.382       .  S
C1339      F1347   1.383       .  S
C1339      F1348   1.384       .  S
C1339      F1349   1.385       .  S
C1353      C1354   1.401       .  A
C1353      C1358   1.408       .  A
C1353      H1363   1.083       .  S
C1354      C1359   1.485       .  S
C1354      C1355   1.413       .  A
C1355      C1356   1.406       .  A
C1355      C1360   1.520       .  S
C1356      C1357   1.409       .  A
C1356      H1361   1.082       .  S
C1357      C1358   1.424       .  A
C1358      C1362   1.519       .  S
C1359      C1364   1.417       .  A
C1359      C1368   1.404       .  A
C1360      F1376   1.382       .  S
C1360      F1377   1.383       .  S
C1360      F1378   1.384       .  S
C1362      F1373   1.385       .  S
C1362      F1374   1.380       .  S
C1362      F1375   1.383       .  S
C1364      C1365   1.405       .  A
C1364      C1369   1.521       .  S
C1365      C1366   1.403       .  A
C1365      H1370   1.083       .  S
C1366      C1367   1.416       .  A
C1367      C1368   1.408       .  A
C1367      C1371   1.519       .  S
C1368      H1372   1.083       .  S
C1369      F1382   1.385       .  S
C1369      F1383   1.382       .  S
C1369      F1384   1.383       .  S
C1371      F1379   1.384       .  S
C1371      F1380   1.382       .  S
C1371      F1381   1.384       .  S
C1385      C1386   1.402       .  A
C1385      C1390   1.407       .  A
C1385      H1395   1.083       .  S
C1386      C1391   1.484       .  S
C1386      C1387   1.415       .  A
C1387      C1388   1.405       .  A
C1387      C1392   1.520       .  S
C1388      C1389   1.406       .  A
C1388      H1393   1.083       .  S
C1389      C1390   1.419       .  A
C1390      C1394   1.515       .  S
C1391      C1396   1.415       .  A
C1391      C1400   1.403       .  A
C1392      F1408   1.382       .  S
C1392      F1409   1.383       .  S
C1392      F1410   1.385       .  S
C1394      F1405   1.383       .  S
C1394      F1406   1.384       .  S
C1394      F1407   1.380       .  S
C1396      C1397   1.403       .  A
C1396      C1401   1.521       .  S
C1397      C1398   1.404       .  A
C1397      H1402   1.084       .  S
C1398      C1399   1.419       .  A
C1399      C1400   1.409       .  A
C1399      C1403   1.519       .  S
C1400      H1404   1.083       .  S
C1401      F1414   1.384       .  S
C1401      F1415   1.382       .  S
C1401      F1416   1.383       .  S
C1403      F1411   1.382       .  S
C1403      F1412   1.384       .  S
C1403      F1413   1.385       .  S
