geometry optimzed in LAMMPS
_audit_creation_date              2020-11-30 
_audit_creation_method            'lammps2cif' 
_symmetry_space_group_name_H-M    'P1' 
_symmetry_Int_Tables_number       1 
_symmetry_cell_setting            triclinic 
loop_ 
_symmetry_equiv_pos_as_xyz 
  x,y,z 
_cell_length_a                    69.40477196 
_cell_length_b                    69.48532845663954 
_cell_length_c                    41.77659606436946 
_cell_angle_alpha                 90.30129564507413 
_cell_angle_beta                  90.27100880043321 
_cell_angle_gamma                 120.08184416977186 
loop_ 
_atom_site_label 
_atom_site_type_symbol 
_atom_site_fract_x 
_atom_site_fract_y 
_atom_site_fract_z 
_atom_site_charge 
O1          O  0.60374846  0.41755654  0.47020497    -0.88600
C2          C  0.55895623  0.38889197  0.39779770     0.87500
Mg3        Mg  0.59469359  0.41383781  0.51946808     1.58100
O4          O  0.58132169  0.44637538  0.40353428    -0.88300
O5          O  0.62156995  0.44416943  0.43528149    -0.75600
C6          C  0.51586861  0.44072562  0.52569662     0.92500
O7          O  0.55686073  0.37250428  0.46939235    -0.75400
O8          O  0.52291759  0.42913668  0.53945914    -0.82900
Mg9        Mg  0.59003716  0.38790372  0.44203612     1.58000
C10         C  0.54053277  0.47382817  0.39910817     0.92400
O11         O  0.62312427  0.40089001  0.41596044    -0.81200
H12         H  0.60758227  0.47715827  0.40235218    -0.06600
C13         C  0.52126400  0.40979529  0.44841702     0.87400
O14         O  0.59781472  0.44858823  0.51858074    -0.75700
O15         O  0.57775561  0.40196037  0.40846656    -0.88500
O16         O  0.54502894  0.46071577  0.38359239    -0.81300
C17         C  0.56875493  0.42506404  0.32305274     0.92600
C18         C  0.63278583  0.41093528  0.39044137     0.92400
Mg19       Mg  0.55301134  0.45809489  0.46589824     1.58000
O20         O  0.52202289  0.44834858  0.49751192    -0.81200
O21         O  0.58486456  0.47272698  0.43614356    -0.75500
O22         O  0.58408887  0.42379422  0.33833413    -0.81300
O23         O  0.60163087  0.37125151  0.47621681    -0.83000
O24         O  0.56086970  0.42249686  0.57004206    -0.81300
C25         C  0.59175711  0.46585994  0.41311800     0.86800
O26         O  0.56623278  0.44379014  0.49932243    -0.88500
O27         O  0.53799923  0.42701534  0.43966919    -0.88600
O28         O  0.51999600  0.40183434  0.47616642    -0.75600
Mg29       Mg  0.60154058  0.43301323  0.38804954     1.58000
O30         O  0.55520125  0.42952442  0.33722321    -0.83000
H31         H  0.63287824  0.44479518  0.48037643    -0.06700
O32         O  0.56035092  0.39779474  0.50441567    -0.88300
H33         H  0.53314193  0.36760903  0.50180701    -0.06600
H34         H  0.59095466  0.47361721  0.51347700    -0.06700
C35         C  0.54954412  0.37886275  0.49264282     0.86800
C36         C  0.61997069  0.43564674  0.46271984     0.87400
C37         C  0.58505753  0.45604904  0.51066812     0.87500
H38         H  0.50758059  0.40097278  0.43174100    -0.06700
O39         O  0.54493047  0.39504128  0.39174787    -0.75700
Mg40       Mg  0.54221144  0.41319576  0.52141203     1.58000
H41         H  0.55399701  0.37154360  0.39486041    -0.06700
C42         C  0.59840951  0.36771176  0.50598226     0.92400
O43         O  0.58650860  0.41230908  0.57240330    -0.83000
C44         C  0.57480131  0.41937134  0.58592915     0.92500
O45         O  0.62484571  0.42025484  0.37276084    -0.83000
Mg46       Mg  0.54669171  0.42877717  0.38997147     1.58200
O47         O  0.59356152  0.37967053  0.52383602    -0.81300
O48         O  0.54004718  0.47387344  0.42966235    -0.83000
O49         O  0.59926576  0.41347574  0.97260978    -0.88600
C50         C  0.56053187  0.39432909  0.89260921     0.87500
Mg51       Mg  0.58623337  0.40654900  0.01981290     1.58100
O52         O  0.58648062  0.45146894  0.90861166    -0.88300
O53         O  0.62155174  0.44239695  0.94369478    -0.75600
C54         C  0.51347011  0.44129787  0.02211462     0.92500
O55         O  0.55078048  0.37101910  0.96112115    -0.75400
O56         O  0.51786942  0.42726079  0.03447792    -0.82900
Mg57       Mg  0.58578735  0.38613074  0.93942721     1.58000
C58         C  0.54995096  0.48382477  0.90297006     0.92400
O59         O  0.62020502  0.39802723  0.91832014    -0.81200
H60         H  0.61405950  0.48104372  0.91448883    -0.06600
C61         C  0.52240689  0.41524642  0.94135904     0.87400
O62         O  0.59186847  0.44218114  0.02411400    -0.75700
O63         O  0.57847955  0.40505408  0.90701489    -0.88500
O64         O  0.55532694  0.47174650  0.88647422    -0.81300
C65         C  0.58044513  0.43792493  0.82467283     0.92600
C66         C  0.63208013  0.40964346  0.89515173     0.92400
Mg67       Mg  0.55487212  0.46079116  0.96856184     1.58000
O68         O  0.52199873  0.45089309  0.99564834    -0.81200
O69         O  0.58900355  0.47564883  0.94455896    -0.75500
O70         O  0.59328698  0.43355517  0.84121803    -0.81300
O71         O  0.59231872  0.36474957  0.97212166    -0.83000
O72         O  0.54966278  0.41329165  0.06792588    -0.81300
C73         C  0.59712503  0.46986561  0.92181032     0.86800
O74         O  0.56324589  0.44178126  0.00117257    -0.88500
O75         O  0.54045752  0.43233939  0.93679175    -0.88600
O76         O  0.51812597  0.40471495  0.96758161    -0.75600
Mg77       Mg  0.60564725  0.43681604  0.89362059     1.58000
O78         O  0.56668951  0.44253321  0.83788789    -0.83000
H79         H  0.62841522  0.43789117  0.98938559    -0.06700
O80         O  0.55342022  0.39400191  0.99940166    -0.88300
H81         H  0.52525791  0.36541406  0.99041337    -0.06600
H82         H  0.58780631  0.46914259  0.02203529    -0.06700
C83         C  0.54251516  0.37632629  0.98432674     0.86800
C84         C  0.61691318  0.43126249  0.96938200     0.87400
C85         C  0.58106675  0.45175883  0.01609597     0.87500
H86         H  0.51014487  0.40878857  0.92226307    -0.06700
O87         O  0.54849957  0.40274183  0.88581480    -0.75700
Mg88       Mg  0.53600463  0.41024659  0.01631374     1.58000
H89         H  0.55448483  0.37703431  0.88684329    -0.06700
C90         C  0.58837216  0.36022825  0.00155357     0.92400
O91         O  0.57338047  0.40065876  0.07057075    -0.83000
C92         C  0.56127439  0.40719623  0.08415528     0.92500
O93         O  0.62717495  0.42218536  0.87915557    -0.83000
Mg94       Mg  0.55350797  0.43782545  0.88886731     1.58200
O95         O  0.58360180  0.37186674  0.02015196    -0.81300
O96         O  0.54669136  0.48113518  0.93310863    -0.83000
O97         O  0.40143965  0.58878716  0.21555832    -0.88600
C98         C  0.44355339  0.60913393  0.14030265     0.87500
Mg99       Mg  0.41221480  0.59408261  0.26444782     1.58100
O100        O  0.41537353  0.55178404  0.15134719    -0.88300
O101        O  0.37971622  0.56123203  0.18312375    -0.75600
C102        C  0.48152980  0.55472242  0.27170442     0.92500
O103        O  0.45087799  0.63002640  0.21008579    -0.75400
O104        O  0.47752079  0.56895020  0.28463584    -0.82900
Mg105      Mg  0.41697406  0.61667687  0.18447957     1.58000
C106        C  0.44987450  0.51746484  0.14838958     0.92400
O107        O  0.38318239  0.60532124  0.16028440    -0.81200
H108        H  0.38690889  0.52268014  0.15267060    -0.06600
C109        C  0.47775501  0.58450243  0.19210436     0.87400
O110        O  0.40475586  0.55774878  0.26642402    -0.75700
O111        O  0.42489360  0.59835234  0.15231256    -0.88500
O112        O  0.44613333  0.53069801  0.13201310    -0.81300
C113        C  0.42661710  0.56868240  0.06956895     0.92600
C114        C  0.37144756  0.59438891  0.13612767     0.92400
Mg115      Mg  0.44250957  0.53869607  0.21388961     1.58000
O116        O  0.47349949  0.54612306  0.24430274    -0.81200
O117        O  0.40986247  0.52593845  0.18574877    -0.75500
O118        O  0.41339495  0.57294604  0.08511255    -0.81300
O119        O  0.41041084  0.63794664  0.21699405    -0.83000
O120        O  0.44519833  0.58362410  0.31489214    -0.81300
C121        C  0.40348433  0.53302501  0.16240489     0.86800
O122        O  0.43371974  0.55746930  0.24630774    -0.88500
O123        O  0.45949145  0.56821511  0.18510691    -0.88600
O124        O  0.48130747  0.59428070  0.21908885    -0.75600
Mg125      Mg  0.39781956  0.56773872  0.13490145     1.58000
O126        O  0.43886400  0.56232650  0.08339344    -0.83000
H127        H  0.37117228  0.56464269  0.22831171    -0.06700
O128        O  0.44571498  0.60583317  0.24761085    -0.88300
H129        H  0.47480514  0.63393751  0.24192823    -0.06600
H130        H  0.40749537  0.53003075  0.26331482    -0.06700
C131        C  0.45773815  0.62370313  0.23394414     0.86800
C132        C  0.38360071  0.57152403  0.20978780     0.87400
C133        C  0.41518478  0.54767470  0.25895735     0.87500
H134        H  0.49085282  0.59093916  0.17451144    -0.06700
O135        O  0.45553011  0.60048951  0.13467613    -0.75700
Mg136      Mg  0.46120066  0.58781908  0.26542067     1.58000
H137        H  0.45025214  0.62665207  0.13583324    -0.06700
C138        C  0.41404498  0.64253926  0.24658531     0.92400
O139        O  0.42222228  0.59718917  0.31733081    -0.83000
C140        C  0.43324726  0.58931914  0.33094254     0.92500
O141        O  0.37715662  0.58324299  0.11820280    -0.83000
Mg142      Mg  0.44911806  0.56489830  0.13582779     1.58200
O143        O  0.41709399  0.63010258  0.26600327    -0.81300
O144        O  0.45137954  0.51877594  0.17887126    -0.83000
O145        O  0.40253536  0.58852356  0.71769640    -0.88600
C146        C  0.44566020  0.61153192  0.64296112     0.87500
Mg147      Mg  0.41259421  0.59284492  0.76654562     1.58100
O148        O  0.41975016  0.55394123  0.65196829    -0.88300
O149        O  0.38250941  0.56083662  0.68452140    -0.75600
C150        C  0.48637444  0.55895627  0.77391610     0.92500
O151        O  0.45158397  0.63118008  0.71439320    -0.75400
O152        O  0.48059953  0.57191555  0.78662556    -0.82900
Mg153      Mg  0.41801207  0.61728780  0.68807262     1.58000
C154        C  0.45668933  0.52204665  0.64870938     0.92400
O155        O  0.38485969  0.60607778  0.66288356    -0.81200
H156        H  0.39234703  0.52391161  0.65218907    -0.06600
C157        C  0.48148281  0.58891791  0.69431002     0.87400
O158        O  0.40698040  0.55705755  0.76639152    -0.75700
O159        O  0.42705362  0.60002674  0.65484650    -0.88500
O160        O  0.45244169  0.53492289  0.63215545    -0.81300
C161        C  0.42978267  0.57139865  0.56986424     0.92600
C162        C  0.37327062  0.59490534  0.63882234     0.92400
Mg163      Mg  0.44805562  0.54190081  0.71445713     1.58000
O164        O  0.47945128  0.55048650  0.74604160    -0.81200
O165        O  0.41556021  0.52802250  0.68540006    -0.75500
O166        O  0.41591081  0.57454841  0.58581842    -0.81300
O167        O  0.41005646  0.63716827  0.72206523    -0.83000
O168        O  0.44529298  0.58209772  0.81629998    -0.81300
C169        C  0.40866104  0.53485017  0.66233801     0.86800
O170        O  0.43710048  0.55879791  0.74690418    -0.88500
O171        O  0.46406125  0.57188903  0.68630660    -0.88600
O172        O  0.48387553  0.59790337  0.72176454    -0.75600
Mg173      Mg  0.40084221  0.56884116  0.63656965     1.58000
O174        O  0.44329912  0.56658295  0.58365296    -0.83000
H175        H  0.37280298  0.56300836  0.72945118    -0.06700
O176        O  0.44638897  0.60625613  0.75054844    -0.88300
H177        H  0.47499918  0.63512744  0.74717172    -0.06600
H178        H  0.41119492  0.53027179  0.76182219    -0.06700
C179        C  0.45822770  0.62465016  0.73819449     0.86800
C180        C  0.38538842  0.57075636  0.71127652     0.87400
C181        C  0.41830788  0.54797056  0.75858007     0.87500
H182        H  0.49484947  0.59666124  0.67724178    -0.06700
O183        O  0.45824835  0.60366386  0.63669265    -0.75700
Mg184      Mg  0.46288832  0.58923106  0.76770970     1.58000
H185        H  0.45175833  0.62901568  0.63907155    -0.06700
C186        C  0.41248989  0.64060343  0.75207936     0.92400
O187        O  0.42231411  0.59564662  0.81868319    -0.83000
C188        C  0.43297104  0.58739694  0.83213956     0.92500
O189        O  0.37892085  0.58331060  0.62169148    -0.83000
Mg190      Mg  0.45372240  0.56870994  0.63659844     1.58200
O191        O  0.41544367  0.62780349  0.77076869    -0.81300
O192        O  0.45845588  0.52361948  0.67916070    -0.83000
O193        O  0.18615559  0.58080707  0.02889570    -0.88600
C194        C  0.16610517  0.59930790  0.10788238     0.87500
Mg195      Mg  0.17937971  0.58677990  0.98128974     1.58100
O196        O  0.13750038  0.54220732  0.09241153    -0.88300
O197        O  0.18237877  0.55320645  0.05861631    -0.75600
C198        C  0.07005747  0.54561095  0.97802141     0.92500
O199        O  0.17688869  0.62082422  0.03927726    -0.75400
O200        O  0.08804534  0.55975374  0.96463521    -0.82900
Mg201      Mg  0.19904691  0.60821927  0.06153846     1.58000
C202        C  0.06848759  0.50754360  0.09928249     0.92400
O203        O  0.22298587  0.59768025  0.08237291    -0.81200
H204        H  0.13701218  0.51333438  0.08757787    -0.06600
C205        C  0.10552749  0.57447840  0.05724625     0.87400
O206        O  0.15081858  0.55017495  0.97771905    -0.75700
O207        O  0.17403483  0.58901697  0.09437015    -0.88500
O208        O  0.08650078  0.52007631  0.11444250    -0.81300
C209        C  0.14406071  0.55649735  0.17562609     0.92600
C210        C  0.22465502  0.58674019  0.10552431     0.92400
Mg211      Mg  0.09466844  0.52926955  0.03259615     1.58000
O212        O  0.07007039  0.53685244  0.00486182    -0.81200
O213        O  0.11582267  0.51671810  0.05761755    -0.75500
O214        O  0.16178984  0.56154654  0.16018236    -0.81300
O215        O  0.22585489  0.63034912  0.02887518    -0.83000
O216        O  0.13468877  0.57547019  0.93116881    -0.81300
C217        C  0.13032464  0.52366940  0.07991502     0.86800
O218        O  0.12130744  0.54851898  0.99923006    -0.88500
O219        O  0.10830878  0.55854513  0.06250523    -0.88600
O220        O  0.11062123  0.58445207  0.03054472    -0.75600
Mg221      Mg  0.17145190  0.55830816  0.10837042     1.58000
O222        O  0.12573287  0.55108880  0.16147717    -0.83000
H223        H  0.19323800  0.55793353  0.01275020    -0.06700
O224        O  0.15744168  0.59741414  0.00041842    -0.88300
H225        H  0.15554927  0.62463935  0.01015110    -0.06600
H226        H  0.12074776  0.52180692  0.98004714    -0.06700
C227        C  0.16307451  0.61471847  0.01597848     0.86800
C228        C  0.18772519  0.56398389  0.03256501     0.87400
C229        C  0.13036661  0.53941114  0.98539184     0.87500
H230        H  0.09904188  0.58035381  0.07602258    -0.06700
O231        O  0.14545861  0.59036472  0.11341292    -0.75700
Mg232      Mg  0.12361069  0.57893277  0.98261356     1.58000
H233        H  0.17686611  0.61673663  0.11354049    -0.06700
C234        C  0.22629578  0.63504612  0.99957356     0.92400
O235        O  0.17159469  0.59144926  0.93031577    -0.83000
C236        C  0.15291762  0.58309313  0.91579563     0.92500
O237        O  0.20817669  0.57463362  0.12342661    -0.83000
Mg238      Mg  0.11685450  0.55457635  0.11068223     1.58200
O239        O  0.21028141  0.62281150  0.98043899    -0.81300
O240        O  0.06686122  0.50920630  0.06907588    -0.83000
O241        O  0.18834762  0.60153099  0.56139876    -0.88600
C242        C  0.17011500  0.55875223  0.48638046     0.87500
Mg243      Mg  0.18202018  0.59075982  0.61020937     1.58100
O244        O  0.13769629  0.58393274  0.49452998    -0.88300
O245        O  0.18148893  0.62167680  0.52784209    -0.75600
C246        C  0.07388225  0.51747749  0.61349996     0.92500
O247        O  0.18177669  0.55296595  0.55712689    -0.75400
O248        O  0.09213058  0.52324551  0.62808972    -0.82900
Mg249      Mg  0.20236486  0.58670178  0.53175020     1.58000
C250        C  0.06892536  0.54507306  0.48754461     0.92400
O251        O  0.22518314  0.62007923  0.50683729    -0.81200
H252        H  0.13485698  0.61116453  0.49454188    -0.06600
C253        C  0.10989025  0.52215309  0.53695760     0.87400
O254        O  0.15205906  0.59686154  0.61001086    -0.75700
O255        O  0.17676688  0.57747195  0.49785788    -0.88500
O256        O  0.08672183  0.54980850  0.47272049    -0.81300
C257        C  0.14510967  0.57226028  0.41373688     0.92600
C258        C  0.22555867  0.63084263  0.48198317     0.92400
Mg259      Mg  0.09632768  0.55570196  0.55536862     1.58000
O260        O  0.07340117  0.52459845  0.58553745    -0.81200
O261        O  0.11532845  0.58803782  0.52698948    -0.75500
O262        O  0.16249271  0.58695326  0.42861442    -0.81300
O263        O  0.22966002  0.59454931  0.56605308    -0.83000
O264        O  0.13788529  0.55821378  0.66050568    -0.81300
C265        C  0.12941308  0.59492367  0.50450769     0.86800
O266        O  0.12345817  0.56680853  0.58984196    -0.88500
O267        O  0.11147398  0.54000620  0.52911291    -0.88600
O268        O  0.11550649  0.51934609  0.56476113    -0.75600
Mg269      Mg  0.17156596  0.60303059  0.47940919     1.58000
O270        O  0.12726167  0.55905857  0.42830478    -0.83000
H271        H  0.19237700  0.63121959  0.57349726    -0.09100
O272        O  0.16131861  0.55717476  0.59351560    -0.88300
H273        H  0.16140681  0.52863235  0.58761912    -0.06600
H274        H  0.12112259  0.59292168  0.60501216    -0.06700
C275        C  0.16796590  0.54564313  0.58010674     0.86800
C276        C  0.18785406  0.61867443  0.55504551     0.87400
C277        C  0.13159562  0.58566135  0.60179987     0.87500
H278        H  0.10403918  0.50878187  0.51955284    -0.06700
O279        O  0.14964587  0.54543188  0.48090602    -0.75700
Mg280      Mg  0.12762887  0.54078245  0.61069716     1.58000
H281        H  0.18191529  0.55313344  0.48262084    -0.06700
C282        C  0.22948573  0.58980807  0.59531841     0.92400
O283        O  0.17456494  0.58075170  0.66241056    -0.83000
C284        C  0.15580895  0.57030925  0.67631971     0.92500
O285        O  0.20808891  0.62485540  0.46499675    -0.83000
Mg286      Mg  0.11911433  0.54955868  0.47991344     1.58200
O287        O  0.21341098  0.58625716  0.61379834    -0.81300
O288        O  0.06800864  0.54420512  0.51806067    -0.83000
O289        O  0.81403234  0.40020122  0.30088175    -0.88600
C290        C  0.83656437  0.43965506  0.22276462     0.87500
Mg291      Mg  0.82076526  0.41291902  0.34872388     1.58100
O292        O  0.86470949  0.41065466  0.23791397    -0.88300
O293        O  0.81954445  0.37716985  0.27140284    -0.75600
C294        C  0.93031475  0.48025099  0.35398531     0.92500
O295        O  0.82417100  0.45008679  0.29147863    -0.75400
O296        O  0.91209368  0.47678878  0.36611991    -0.82900
Mg297      Mg  0.80235724  0.41567229  0.26793229     1.58000
C298        C  0.93327921  0.44333437  0.23285206     0.92400
O299        O  0.77828052  0.38204073  0.24447459    -0.81200
H300        H  0.86467215  0.38197966  0.24175638    -0.06600
C301        C  0.89620022  0.47430346  0.27341584     0.87400
O302        O  0.84918361  0.40465079  0.35216941    -0.75700
O303        O  0.82819559  0.42139131  0.23604511    -0.88500
O304        O  0.91592553  0.43891984  0.21665926    -0.81300
C305        C  0.85833970  0.41817904  0.15432400     0.92600
C306        C  0.77760959  0.36925174  0.22200925     0.92400
Mg307      Mg  0.90628304  0.43950629  0.29870129     1.58000
O308        O  0.93090205  0.47153903  0.32723888    -0.81200
O309        O  0.88537847  0.40594745  0.27309795    -0.75500
O310        O  0.84092574  0.40559239  0.17036895    -0.81300
O311        O  0.77516198  0.41099252  0.30050451    -0.83000
O312        O  0.86539771  0.44681817  0.39837539    -0.81300
C313        C  0.87142485  0.39892096  0.25013149     0.86800
O314        O  0.87906923  0.43234874  0.33113619    -0.88500
O315        O  0.89380288  0.45571869  0.26801840    -0.88600
O316        O  0.89035529  0.47893654  0.29980004    -0.75600
Mg317      Mg  0.83102852  0.39314583  0.22205374     1.58000
O318        O  0.87687940  0.43129991  0.16800312    -0.83000
H319        H  0.80734042  0.37035052  0.31649257    -0.06700
O320        O  0.84317372  0.44538638  0.32975267    -0.88300
H321        H  0.84511962  0.47467689  0.32193873    -0.06600
H322        H  0.87907591  0.40597544  0.35008665    -0.06700
C323        C  0.83768516  0.45735780  0.31509231     0.86800
C324        C  0.81308411  0.38206923  0.29701761     0.87400
C325        C  0.86968914  0.41416001  0.34475008     0.87500
H326        H  0.90289947  0.48674146  0.25490969    -0.06700
O327        O  0.85722785  0.45090510  0.21701829    -0.75700
Mg328      Mg  0.87686385  0.46068395  0.34745559     1.58000
H329        H  0.82616123  0.44672068  0.21731335    -0.06700
C330        C  0.77430021  0.41505662  0.32994293     0.92400
O331        O  0.82856092  0.42533700  0.40001077    -0.83000
C332        C  0.84736414  0.43625828  0.41409622     0.92500
O333        O  0.79493252  0.37287549  0.20676901    -0.83000
Mg334      Mg  0.88566155  0.44345090  0.21958810     1.58200
O335        O  0.78995393  0.41843030  0.34950744    -0.81300
O336        O  0.93432678  0.44649607  0.26313141    -0.83000
O337        O  0.81203198  0.39752078  0.80035223    -0.88600
C338        C  0.83174629  0.44221319  0.72819267     0.87500
Mg339      Mg  0.81752365  0.40625042  0.85009765     1.58100
O340        O  0.86169637  0.41441980  0.73283645    -0.88300
O341        O  0.81763295  0.37747474  0.76461938    -0.75600
C342        C  0.92596834  0.47651227  0.85668928     0.92500
O343        O  0.81913202  0.44666892  0.79984352    -0.75400
O344        O  0.90779158  0.47144899  0.87057745    -0.82900
Mg345      Mg  0.79874134  0.41362529  0.77222794     1.58000
C346        C  0.93045381  0.44951416  0.73054875     0.92400
O347        O  0.77645233  0.38082412  0.74681840    -0.81200
H348        H  0.86247056  0.38606879  0.73187733    -0.06600
C349        C  0.89101555  0.47496200  0.77962537     0.87400
O350        O  0.84676534  0.39930832  0.84952332    -0.75700
O351        O  0.82435441  0.42318357  0.73856070    -0.88500
O352        O  0.91361489  0.44662912  0.71416238    -0.81300
C353        C  0.85480022  0.42898603  0.65312688     0.92600
C354        C  0.77464175  0.36953558  0.72182142     0.92400
Mg355      Mg  0.90226189  0.43942344  0.79666885     1.58000
O356        O  0.92635414  0.46964854  0.82842060    -0.81200
O357        O  0.88207830  0.40788161  0.76631919    -0.75500
O358        O  0.83739343  0.41464404  0.66792255    -0.81300
O359        O  0.77133196  0.40490015  0.80590427    -0.83000
O360        O  0.86138553  0.43750340  0.90062233    -0.81300
C361        C  0.86866626  0.40228809  0.74276157     0.86800
O362        O  0.87517543  0.42915222  0.82994509    -0.88500
O363        O  0.88925540  0.45716971  0.77058157    -0.88600
O364        O  0.88508520  0.47730569  0.80744247    -0.75600
Mg365      Mg  0.82777218  0.39702513  0.71729975     1.58000
O366        O  0.87334629  0.44096738  0.66762477    -0.83000
H367        H  0.80711318  0.36721223  0.80986773    -0.06700
O368        O  0.83861576  0.44041029  0.83566941    -0.88300
H369        H  0.83916477  0.46942435  0.83313541    -0.06600
H370        H  0.87754238  0.40301269  0.84442131    -0.06700
C371        C  0.83245246  0.45273787  0.82369572     0.86800
C372        C  0.81184590  0.38021423  0.79239972     0.87400
C373        C  0.86711917  0.41036050  0.84151031     0.87500
H374        H  0.89723566  0.48870934  0.76316078    -0.06700
O375        O  0.85227465  0.45471895  0.72240935    -0.75700
Mg376      Mg  0.87234175  0.45552255  0.85241970     1.58000
H377        H  0.82059154  0.44872942  0.72538657    -0.06700
C378        C  0.77040154  0.40772048  0.83568910     0.92400
O379        O  0.82482981  0.41431372  0.90314555    -0.83000
C380        C  0.84394120  0.42486649  0.91652543     0.92500
O381        O  0.79069971  0.37585138  0.70218599    -0.83000
Mg382      Mg  0.88185569  0.44890589  0.72055691     1.58200
O383        O  0.78611460  0.41060172  0.85473846    -0.81300
O384        O  0.93037927  0.44954245  0.76105860    -0.83000
O385        O  0.60409518  0.18685054  0.11869720    -0.88600
C386        C  0.56464360  0.16944107  0.19640558     0.87500
Mg387      Mg  0.59145078  0.17958098  0.07083532     1.58100
O388        O  0.58975227  0.13723206  0.18374409    -0.88300
O389        O  0.62607433  0.18057633  0.14937969    -0.75600
C390        C  0.51689014  0.07189621  0.06928981     0.92500
O391        O  0.55547307  0.18051276  0.12634799    -0.75400
O392        O  0.52188242  0.09001891  0.05533219    -0.82900
Mg393      Mg  0.59010367  0.20124844  0.14978824     1.58000
C394        C  0.55175075  0.06901950  0.19121295     0.92400
O395        O  0.62379195  0.22432674  0.17357905    -0.81200
H396        H  0.61699072  0.13448868  0.18027747    -0.06600
C397        C  0.52595090  0.10901249  0.14718131     0.87400
O398        O  0.59710944  0.14951957  0.06929692    -0.75700
O399        O  0.58279423  0.17610806  0.18331281    -0.88500
O400        O  0.55785944  0.08704851  0.20658383    -0.81300
C401        C  0.58218435  0.14580470  0.26627038     0.92600
C402        C  0.63628302  0.22486300  0.19639026     0.92400
Mg403      Mg  0.55816991  0.09500212  0.12412560     1.58000
O404        O  0.52537048  0.07165258  0.09640173    -0.81200
O405        O  0.59205545  0.11442257  0.14967978    -0.75500
O406        O  0.59609144  0.16282013  0.25048415    -0.81300
O407        O  0.59665681  0.22813089  0.11538789    -0.83000
O408        O  0.55519013  0.13535369  0.02178175    -0.81300
C409        C  0.60019667  0.12885830  0.17200372     0.86800
O410        O  0.56748885  0.12135188  0.08998807    -0.88500
O411        O  0.54414033  0.11055570  0.15298866    -0.88600
O412        O  0.52169947  0.11432808  0.12012084    -0.75600
Mg413      Mg  0.60952640  0.17111663  0.19863383     1.58000
O414        O  0.56836474  0.12764920  0.25242329    -0.83000
H415        H  0.63343325  0.19151324  0.10371637    -0.06700
O416        O  0.55834746  0.15951538  0.08938843    -0.88300
H417        H  0.53010483  0.15992562  0.09667478    -0.06600
H418        H  0.59269800  0.11840356  0.07259845    -0.06700
C419        C  0.54735121  0.16648126  0.10343829     0.86800
C420        C  0.62173220  0.18683953  0.12314773     0.87400
C421        C  0.58584440  0.12912319  0.07697130     0.87500
H422        H  0.51356012  0.10347759  0.16577513    -0.06700
O423        O  0.55180070  0.14904883  0.20238145    -0.75700
Mg424      Mg  0.54062985  0.12568263  0.07257367     1.58000
H425        H  0.55904235  0.18113765  0.20128336    -0.06700
C426        C  0.59244847  0.22784144  0.08575622     0.92400
O427        O  0.57923480  0.17166962  0.01978373    -0.83000
C428        C  0.56710772  0.15302685  0.00593147     0.92500
O429        O  0.63221164  0.20757713  0.21213348    -0.83000
Mg430      Mg  0.55634675  0.11880367  0.20136984     1.58200
O431        O  0.58820559  0.21121705  0.06783923    -0.81300
O432        O  0.54866290  0.06762403  0.16097895    -0.83000
O433        O  0.60210022  0.18740636  0.61995180    -0.88600
C434        C  0.55859996  0.16862555  0.69333719     0.87500
Mg435      Mg  0.59248307  0.18101613  0.57078530     1.58100
O436        O  0.58601820  0.13831597  0.68695661    -0.88300
O437        O  0.62293719  0.18223186  0.65465598    -0.75600
C438        C  0.52034304  0.07243925  0.56707144     0.92500
O439        O  0.55282172  0.18016534  0.62164684    -0.75400
O440        O  0.52530949  0.09031454  0.55232307    -0.82900
Mg441      Mg  0.58619767  0.20099032  0.64836169     1.58000
C442        C  0.55038345  0.06983185  0.69192747     0.92400
O443        O  0.61924373  0.22366253  0.67321929    -0.81200
H444        H  0.61416311  0.13707094  0.68731714    -0.06600
C445        C  0.52445774  0.10881826  0.64286078     0.87400
O446        O  0.59905209  0.15154944  0.57134500    -0.75700
O447        O  0.57742322  0.17576412  0.68224681    -0.88500
O448        O  0.55393215  0.08718552  0.70735696    -0.81300
C449        C  0.57325421  0.14566790  0.76714935     0.92600
C450        C  0.63088312  0.22547748  0.69785043     0.92400
Mg451      Mg  0.55929576  0.09667643  0.62500548     1.58000
O452        O  0.52845700  0.07273312  0.59467110    -0.81200
O453        O  0.59152690  0.11694985  0.65403900    -0.75500
O454        O  0.58739395  0.16299946  0.75211859    -0.81300
O455        O  0.59398392  0.22814369  0.61428188    -0.83000
O456        O  0.55991432  0.13665665  0.52018330    -0.81300
C457        C  0.59776989  0.13089715  0.67698294     0.86800
O458        O  0.56917405  0.12317146  0.59094526    -0.88500
O459        O  0.54242146  0.11063140  0.65115824    -0.88600
O460        O  0.52155848  0.11434882  0.61508683    -0.75600
Mg461      Mg  0.60392670  0.17228317  0.70227301     1.58000
O462        O  0.56070997  0.12726554  0.75281467    -0.83000
H463        H  0.63241115  0.19270173  0.60918721    -0.06700
O464        O  0.55846537  0.16021446  0.58587635    -0.88300
H465        H  0.52951595  0.15978559  0.58920909    -0.06600
H466        H  0.59525667  0.12075976  0.57616207    -0.06700
C467        C  0.54636092  0.16657291  0.59811267     0.86800
C468        C  0.61967766  0.18789512  0.62713925     0.87400
C469        C  0.58794578  0.13119998  0.57923710     0.87500
H470        H  0.51106488  0.10291764  0.65993872    -0.06700
O471        O  0.54598388  0.14816901  0.69922619    -0.75700
Mg472      Mg  0.54260325  0.12627571  0.56938107     1.58000
H473        H  0.55231585  0.17993184  0.69658215    -0.06700
C474        C  0.59178976  0.22875380  0.58426570     0.92400
O475        O  0.58320517  0.17322696  0.51854001    -0.83000
C476        C  0.57236633  0.15436993  0.50463192     0.92500
O477        O  0.62516720  0.20929873  0.71704235    -0.83000
Mg478      Mg  0.55169219  0.11859674  0.70063114     1.58200
O479        O  0.58903246  0.21276741  0.56592518    -0.81300
O480        O  0.54938356  0.06892968  0.66144039    -0.83000
O481        O  0.41744957  0.81445412  0.39232782    -0.88600
C482        C  0.39208704  0.83304810  0.31862108     0.87500
Mg483      Mg  0.41293046  0.81974414  0.44150612     1.58100
O484        O  0.44970517  0.86617342  0.32801860    -0.88300
O485        O  0.44471920  0.82257104  0.35880313    -0.75600
C486        C  0.44544667  0.92729295  0.44956899     0.92500
O487        O  0.37411739  0.81936405  0.38955813    -0.75400
O488        O  0.43328934  0.90879510  0.46330388    -0.82900
Mg489      Mg  0.38849044  0.80046312  0.36239270     1.58000
C490        C  0.47953253  0.93380243  0.32447466     0.92400
O491        O  0.39997757  0.77919086  0.33563917    -0.81200
H492        H  0.47997585  0.86939619  0.32757950    -0.06600
C493        C  0.41447101  0.89181880  0.37144807     0.87400
O494        O  0.44855652  0.85050321  0.44239774    -0.75700
O495        O  0.40450954  0.82688057  0.33008096    -0.88500
O496        O  0.46593111  0.91632480  0.30911856    -0.81300
C497        C  0.43106108  0.85922822  0.24657302     0.92600
C498        C  0.41048806  0.77953675  0.31054373     0.92400
Mg499      Mg  0.46194576  0.90617800  0.39055151     1.58000
O500        O  0.45280657  0.92836853  0.42129052    -0.81200
O501        O  0.47605602  0.88810626  0.36149866    -0.75500
O502        O  0.42881204  0.84233069  0.26171850    -0.81300
O503        O  0.36972259  0.77224050  0.39508823    -0.83000
O504        O  0.42277490  0.86279764  0.49257457    -0.81300
C505        C  0.46902803  0.87449795  0.33812959     0.86800
O506        O  0.44604953  0.87854894  0.42335080    -0.88500
O507        O  0.43116516  0.89103083  0.36335156    -0.88600
O508        O  0.40594658  0.88555073  0.39895236    -0.75600
Mg509      Mg  0.43563028  0.83290771  0.31140500     1.58000
O510        O  0.43523766  0.87711092  0.26103057    -0.83000
H511        H  0.44354817  0.81095399  0.40362286    -0.06700
O512        O  0.39894027  0.83980426  0.42614740    -0.88300
H513        H  0.36959914  0.83852999  0.42209483    -0.06600
H514        H  0.47492740  0.88188168  0.43870765    -0.06700
C515        C  0.38044391  0.83271480  0.41335782     0.86800
C516        C  0.43532846  0.81552483  0.38567625     0.87400
C517        C  0.45724627  0.87094517  0.43504265     0.87500
H518        H  0.40664471  0.89750318  0.35446828    -0.06700
O519        O  0.39885823  0.85337885  0.31332698    -0.75700
Mg520      Mg  0.41560266  0.87341698  0.44414034     1.58000
H521        H  0.37473152  0.82093360  0.31453174    -0.06700
C522        C  0.36544862  0.77115574  0.42469639     0.92400
O523        O  0.41037990  0.82643356  0.49413017    -0.83000
C524        C  0.41787313  0.84520684  0.50810732     0.92500
O525        O  0.42161990  0.79722350  0.29445977    -0.83000
Mg526      Mg  0.43340078  0.88422250  0.31376379     1.58200
O527        O  0.37766480  0.78703228  0.44411744    -0.81300
O528        O  0.47935022  0.93485260  0.35496373    -0.83000
O529        O  0.41498868  0.81436876  0.89464647    -0.88600
C530        C  0.39129246  0.83285511  0.81917584     0.87500
Mg531      Mg  0.41045576  0.82108067  0.94292101     1.58100
O532        O  0.44903714  0.86455962  0.82872971    -0.88300
O533        O  0.44241188  0.82106226  0.86229424    -0.75600
C534        C  0.44613185  0.92916183  0.94604063     0.92500
O535        O  0.37216523  0.82014592  0.88943669    -0.75400
O536        O  0.43296732  0.91083183  0.95941613    -0.82900
Mg537      Mg  0.38617381  0.80010363  0.86445657     1.58000
C538        C  0.48095947  0.93293553  0.82184556     0.92400
O539        O  0.39699937  0.77732917  0.84041439    -0.81200
H540        H  0.47890116  0.86683393  0.82932862    -0.06600
C541        C  0.41518423  0.89306116  0.86800209     0.87400
O542        O  0.44637749  0.85119812  0.94347250    -0.75700
O543        O  0.40293824  0.82589818  0.83115507    -0.88500
O544        O  0.46775930  0.91530060  0.80628977    -0.81300
C545        C  0.43109624  0.85605885  0.74704760     0.92600
C546        C  0.40762229  0.77705954  0.81585004     0.92400
Mg547      Mg  0.46215166  0.90633257  0.88882970     1.58000
O548        O  0.45410848  0.92993306  0.91827750    -0.81200
O549        O  0.47559242  0.88690144  0.86155024    -0.75500
O550        O  0.42785985  0.83911273  0.76304361    -0.81300
O551        O  0.36732739  0.77289623  0.89821843    -0.83000
O552        O  0.42109500  0.86561069  0.99151779    -0.81300
C553        C  0.46827969  0.87263704  0.83901530     0.86800
O554        O  0.44507609  0.87931864  0.92230201    -0.88500
O555        O  0.43180425  0.89182104  0.86094282    -0.88600
O556        O  0.40608809  0.88710117  0.89523314    -0.75600
Mg557      Mg  0.43398364  0.83069082  0.81388904     1.58000
O558        O  0.43593530  0.87441475  0.76061316    -0.83000
H559        H  0.44033253  0.81011531  0.90775871    -0.06700
O560        O  0.39723200  0.84128830  0.92527621    -0.88300
H561        H  0.36820809  0.84058368  0.92025627    -0.06600
H562        H  0.47342421  0.88205968  0.93894914    -0.06700
C563        C  0.37876912  0.83420170  0.91237835     0.86800
C564        C  0.43263158  0.81469121  0.88902094     0.87400
C565        C  0.45570497  0.87148242  0.93512020     0.87500
H566        H  0.40785627  0.89879231  0.85026741    -0.06700
O567        O  0.39910891  0.85325274  0.81281914    -0.75700
Mg568      Mg  0.41466665  0.87532997  0.94175789     1.58000
H569        H  0.37372088  0.82141210  0.81540981    -0.06700
C570        C  0.36350440  0.77209261  0.92790729     0.92400
O571        O  0.40750501  0.82910861  0.99448836    -0.83000
C572        C  0.41545236  0.84814024  0.00777976     0.92500
O573        O  0.41908330  0.79446310  0.79929433    -0.83000
Mg574      Mg  0.43420881  0.88344594  0.81220421     1.58200
O575        O  0.37535159  0.78862278  0.94652801    -0.81300
O576        O  0.48018262  0.93406541  0.85228119    -0.83000
C577        C  0.43136401  0.88788989  0.60868235    -0.18100
C578        C  0.43302157  0.88936423  0.64205964    -0.20200
C579        C  0.43051471  0.87127783  0.66007919     0.20400
C580        C  0.42639312  0.85153459  0.64433903    -0.03100
C581        C  0.42468796  0.85003256  0.61064164    -0.06200
C582        C  0.42715050  0.86829488  0.59279432     0.20700
C583        C  0.42039351  0.83023694  0.59485808     0.18900
C584        C  0.41809183  0.81222938  0.61290163    -0.17700
C585        C  0.41983221  0.81373622  0.64631105    -0.19900
C586        C  0.42387480  0.83326548  0.66224596     0.20400
C587        C  0.42538092  0.83482049  0.69575123    -0.32900
C588        C  0.42940292  0.85443055  0.71165657     0.01100
C589        C  0.43200664  0.87259845  0.69355444    -0.24300
C590        C  0.42519496  0.86661784  0.55938407    -0.28800
C591        C  0.42060340  0.84684711  0.54340650     0.06700
C592        C  0.41832494  0.82874775  0.56135948    -0.27500
H593        H  0.43330292  0.90206072  0.59528964     0.11400
H594        H  0.43621771  0.90464637  0.65379093     0.12600
H595        H  0.41485354  0.79693536  0.60117763     0.11700
H596        H  0.41791727  0.79957590  0.65970565     0.10900
H597        H  0.42343409  0.82073805  0.70940721     0.16300
H598        H  0.43515589  0.88780993  0.70548686     0.12200
H599        H  0.42695984  0.88068147  0.54586284     0.15100
H600        H  0.41489824  0.81348880  0.54930327     0.14800
C601        C  0.43539949  0.89401155  0.14144670    -0.18100
C602        C  0.43331201  0.89246936  0.10804577    -0.20200
C603        C  0.42696059  0.87224472  0.09222997     0.20400
C604        C  0.42276793  0.85342919  0.11023136    -0.03100
C605        C  0.42493734  0.85500360  0.14389086    -0.06200
C606        C  0.43120721  0.87536894  0.15959401     0.20700
C607        C  0.42077326  0.83616547  0.16179814     0.18900
C608        C  0.41454018  0.81598395  0.14601332    -0.17700
C609        C  0.41231520  0.81440518  0.11270832    -0.19900
C610        C  0.41634487  0.83299573  0.09463945     0.20400
C611        C  0.41400928  0.83144659  0.06126333    -0.32900
C612        C  0.41810050  0.85007068  0.04306896     0.01100
C613        C  0.42466581  0.87047037  0.05877291    -0.24300
C614        C  0.43313745  0.87669931  0.19312906    -0.28800
C615        C  0.42894578  0.85792887  0.21116834     0.06700
C616        C  0.42284322  0.83776339  0.19519295    -0.27500
H617        H  0.44027299  0.90979098  0.15309273     0.11400
H618        H  0.43661673  0.90708795  0.09458593     0.12600
H619        H  0.41131398  0.80138236  0.15944999     0.11700
H620        H  0.40740936  0.79861486  0.10107493     0.10900
H621        H  0.40903215  0.81568422  0.04946396     0.16300
H622        H  0.42785900  0.88495046  0.04502149     0.12200
H623        H  0.43796131  0.89236083  0.20513186     0.15100
H624        H  0.41958876  0.82318926  0.20874821     0.14800
C625        C  0.50909221  0.96918471  0.71765835    -0.18100
C626        C  0.51890673  0.98848288  0.69917542    -0.20200
C627        C  0.52886609  0.00953080  0.71392972     0.20400
C628        C  0.52969553  0.01112709  0.74768914    -0.03100
C629        C  0.51976207  0.99165520  0.76634059    -0.06200
C630        C  0.50905073  0.97061196  0.75120204     0.20700
C631        C  0.51970921  0.99327375  0.80005944     0.18900
C632        C  0.53033066  0.01431433  0.81484168    -0.17700
C633        C  0.54019343  0.03359550  0.79638045    -0.19900
C634        C  0.53957102  0.03215365  0.76282920     0.20400
C635        C  0.54770019  0.05133926  0.74422054    -0.32900
C636        C  0.54577436  0.04987247  0.71058370     0.01100
C637        C  0.53703337  0.02892633  0.69557162    -0.24300
C638        C  0.49761970  0.95141245  0.76976402    -0.28800
C639        C  0.49644143  0.95291681  0.80331407     0.06700
C640        C  0.50818150  0.97390345  0.81832882    -0.27500
H641        H  0.50100673  0.95312669  0.70567078     0.11400
H642        H  0.51819370  0.98693126  0.67331801     0.12600
H643        H  0.53052057  0.01586886  0.84067767     0.11700
H644        H  0.54779044  0.04964899  0.80834964     0.10900
H645        H  0.55457642  0.06737887  0.75611535     0.16300
H646        H  0.53549503  0.02757871  0.66971369     0.12200
H647        H  0.48879437  0.93533757  0.75786045     0.15100
H648        H  0.50743952  0.97529073  0.84409473     0.14800
C649        C  0.47256357  0.00815445  0.45293714    -0.18100
C650        C  0.48287313  0.02845624  0.46959789    -0.20200
C651        C  0.48808052  0.02929014  0.50227682     0.20400
C652        C  0.48230506  0.00939020  0.51853374    -0.03100
C653        C  0.47162566  0.98885365  0.50180705    -0.06200
C654        C  0.46710002  0.98829257  0.46871043     0.20700
C655        C  0.46605352  0.96898227  0.51800661     0.18900
C656        C  0.47108554  0.96978352  0.55074844    -0.17700
C657        C  0.48190866  0.99014766  0.56720623    -0.19900
C658        C  0.48772095  0.01005165  0.55128139     0.20400
C659        C  0.49937037  0.03062711  0.56731355    -0.32900
C660        C  0.50570564  0.05064282  0.55109687     0.01100
C661        C  0.49954492  0.04972809  0.51869746    -0.24300
C662        C  0.45780473  0.96799729  0.45181756    -0.28800
C663        C  0.45253227  0.94818464  0.46773187     0.06700
C664        C  0.45620727  0.94875745  0.50098129    -0.27500
H665        H  0.46912037  0.00802853  0.42758714     0.11400
H666        H  0.48716279  0.04357555  0.45675760     0.12600
H667        H  0.46698251  0.95468534  0.56351896     0.11700
H668        H  0.48594270  0.99034818  0.59234285     0.10900
H669        H  0.50397666  0.03105465  0.59225099     0.16300
H670        H  0.50438189  0.06498346  0.50585906     0.12200
H671        H  0.45501315  0.96764939  0.42620914     0.15100
H672        H  0.45246217  0.93359604  0.51332916     0.14800
C673        C  0.54170828  0.11017396  0.90423084    -0.18100
C674        C  0.54261495  0.10916917  0.87084348    -0.20200
C675        C  0.55611028  0.12846172  0.85326605     0.20400
C676        C  0.56856371  0.14901473  0.86942819    -0.03100
C677        C  0.56763063  0.15003132  0.90309404    -0.06200
C678        C  0.55428152  0.13048766  0.92059606     0.20700
C679        C  0.58028239  0.17056308  0.91923110     0.18900
C680        C  0.59345766  0.18991437  0.90163450    -0.17700
C681        C  0.59440836  0.18890071  0.86830158    -0.19900
C682        C  0.58217424  0.16852633  0.85201592     0.20400
C683        C  0.58350808  0.16732483  0.81866871    -0.32900
C684        C  0.57138837  0.14687038  0.80235261     0.01100
C685        C  0.55755447  0.12752785  0.81986845    -0.24300
C686        C  0.55396601  0.13156357  0.95414269    -0.28800
C687        C  0.56687949  0.15193671  0.97045863     0.06700
C688        C  0.57978960  0.17138320  0.95270408    -0.27500
H689        H  0.53131223  0.09502111  0.91727796     0.11400
H690        H  0.53289744  0.09326073  0.85878590     0.12600
H691        H  0.60320292  0.20581989  0.91368769     0.11700
H692        H  0.60486374  0.20404203  0.85527100     0.10900
H693        H  0.59409282  0.18234857  0.80545564     0.16300
H694        H  0.54808433  0.11165979  0.80759311     0.12200
H695        H  0.54384488  0.11648758  0.96752065     0.15100
H696        H  0.58969133  0.18720518  0.96492737     0.14800
C697        C  0.60658937  0.18940870  0.40160273    -0.18100
C698        C  0.60814537  0.18820969  0.36834625    -0.20200
C699        C  0.59437666  0.16828616  0.35172100     0.20400
C700        C  0.57892868  0.14935633  0.36883560    -0.03100
C701        C  0.57737853  0.15055438  0.40239865    -0.06200
C702        C  0.59125099  0.17069459  0.41882165     0.20700
C703        C  0.56190730  0.13162278  0.41946938     0.18900
C704        C  0.54811667  0.11169961  0.40286686    -0.17700
C705        C  0.54961987  0.11052490  0.36962268    -0.19900
C706        C  0.56495390  0.12924975  0.35242976     0.20400
C707        C  0.56641534  0.12822236  0.31909574    -0.32900
C708        C  0.58162575  0.14704839  0.30170787     0.01100
C709        C  0.59565918  0.16700642  0.31829750    -0.24300
C710        C  0.58952613  0.17179921  0.45214708    -0.28800
C711        C  0.57415353  0.15299981  0.46940588     0.06700
C712        C  0.56044576  0.13294606  0.45280926    -0.27500
H713        H  0.61737006  0.20499719  0.41385970     0.11400
H714        H  0.62009066  0.20290754  0.35560704     0.12600
H715        H  0.53613050  0.09701809  0.41559537     0.11700
H716        H  0.53875622  0.09496568  0.35734283     0.10900
H717        H  0.55550691  0.11272375  0.30668611     0.16300
H718        H  0.60741596  0.18162172  0.30520783     0.12200
H719        H  0.60021972  0.18732607  0.46462987     0.15100
H720        H  0.54850434  0.11836273  0.46578371     0.14800
C721        C  0.50351684  0.96846933  0.21905481    -0.18100
C722        C  0.51375029  0.98744619  0.20006068    -0.20200
C723        C  0.52619136  0.00856345  0.21424704     0.20400
C724        C  0.52887413  0.01052829  0.24787879    -0.03100
C725        C  0.51843929  0.99137767  0.26707490    -0.06200
C726        C  0.50549813  0.97033522  0.25252902     0.20700
C727        C  0.52025686  0.99336948  0.30079974     0.18900
C728        C  0.53319436  0.01446040  0.31491421    -0.17700
C729        C  0.54361421  0.03345784  0.29586958    -0.19900
C730        C  0.54121979  0.03167324  0.26240571     0.20400
C731        C  0.55008299  0.05070819  0.24334208    -0.32900
C732        C  0.54644678  0.04894213  0.20993866     0.01100
C733        C  0.53510827  0.02776635  0.19549186    -0.24300
C734        C  0.49400896  0.95157938  0.27168073    -0.28800
C735        C  0.49474985  0.95346815  0.30534428     0.06700
C736        C  0.50841076  0.97437019  0.31977059    -0.27500
H737        H  0.49360817  0.95236301  0.20758679     0.11400
H738        H  0.51153817  0.98564086  0.17431127     0.12600
H739        H  0.53485995  0.01631646  0.34071142     0.11700
H740        H  0.55310027  0.04960833  0.30737064     0.10900
H741        H  0.55888738  0.06694620  0.25478901     0.16300
H742        H  0.53217290  0.02620303  0.16985070     0.12200
H743        H  0.48369857  0.93555955  0.26015181     0.15100
H744        H  0.50914857  0.97600086  0.34562879     0.14800
C745        C  0.46666601  0.96965963  0.04907166    -0.18100
C746        C  0.47643148  0.98960557  0.06656921    -0.20200
C747        C  0.48350632  0.00992063  0.05108468     0.20400
C748        C  0.48036486  0.01007987  0.01767963    -0.03100
C749        C  0.47080591  0.98997170  0.99993101    -0.06200
C750        C  0.46396997  0.96970019  0.01574754     0.20700
C751        C  0.46862309  0.99022870  0.96630776     0.18900
C752        C  0.47533310  0.01050463  0.95092017    -0.17700
C753        C  0.48451000  0.03038618  0.96855735    -0.19900
C754        C  0.48736601  0.03038127  0.00186016     0.20400
C755        C  0.49789493  0.05039765  0.01938824    -0.32900
C756        C  0.50212022  0.05051365  0.05245171     0.01100
C757        C  0.49438133  0.03011218  0.06822668    -0.24300
C758        C  0.45503523  0.94988146  0.99790502    -0.28800
C759        C  0.45339964  0.95004272  0.96430640     0.06700
C760        C  0.46019412  0.97029029  0.94865198    -0.27500
H761        H  0.46153855  0.95421877  0.06155422     0.11400
H762        H  0.47869990  0.98916519  0.09218072     0.12600
H763        H  0.47369802  0.01102166  0.92517900     0.11700
H764        H  0.48981025  0.04584506  0.95603777     0.10900
H765        H  0.50386109  0.06597899  0.00687827     0.16300
H766        H  0.49747695  0.02996693  0.09365940     0.12200
H767        H  0.45015443  0.93438212  0.01011193     0.15100
H768        H  0.45901386  0.97051803  0.92278481     0.14800
C769        C  0.71029072  0.30437210  0.76935127    -0.18100
C770        C  0.69032383  0.28408593  0.76642825    -0.20200
C771        C  0.68140284  0.27524872  0.73610536     0.20400
C772        C  0.69290739  0.28699088  0.70845059    -0.03100
C773        C  0.71327441  0.30727716  0.71139144    -0.06200
C774        C  0.72182915  0.31607515  0.74199317     0.20700
C775        C  0.72501169  0.31877427  0.68372645     0.18900
C776        C  0.71611983  0.30990575  0.65341068    -0.17700
C777        C  0.69575992  0.29002985  0.65048930    -0.19900
C778        C  0.68405085  0.27850992  0.67784071     0.20400
C779        C  0.66365114  0.25863784  0.67505243    -0.32900
C780        C  0.65210436  0.24669207  0.70238581     0.01100
C781        C  0.66120087  0.25496182  0.73289591    -0.24300
C782        C  0.74173649  0.33646117  0.74474498    -0.28800
C783        C  0.75359248  0.34809926  0.71736996     0.06700
C784        C  0.74530067  0.33897493  0.68689224    -0.27500
H785        H  0.71672669  0.31091213  0.79304217     0.11400
H786        H  0.68177758  0.27538022  0.78791914     0.12600
H787        H  0.72482752  0.31844323  0.63191611     0.11700
H788        H  0.68917781  0.28363806  0.62679910     0.10900
H789        H  0.65691923  0.25219701  0.65140898     0.16300
H790        H  0.65239953  0.24584085  0.75401218     0.12200
H791        H  0.74820324  0.34317552  0.76838519     0.15100
H792        H  0.75435586  0.34780293  0.66575054     0.14800
C793        C  0.73763769  0.28875824  0.20238278    -0.18100
C794        C  0.71785420  0.26828378  0.20121168    -0.20200
C795        C  0.69724025  0.26727083  0.20408611     0.20400
C796        C  0.69651818  0.28708147  0.20829480    -0.03100
C797        C  0.71651432  0.30771091  0.21018451    -0.06200
C798        C  0.73712903  0.30851607  0.20691219     0.20700
C799        C  0.71588569  0.32747747  0.21554091     0.18900
C800        C  0.69523510  0.32645727  0.21813782    -0.17700
C801        C  0.67537322  0.30606346  0.21525019    -0.19900
C802        C  0.67583568  0.28628631  0.21040186     0.20400
C803        C  0.65603167  0.26575792  0.20720309    -0.32900
C804        C  0.65674077  0.24602896  0.20324455     0.01100
C805        C  0.67732772  0.24683433  0.20223112    -0.24300
C806        C  0.75691852  0.32900730  0.20884991    -0.28800
C807        C  0.75647249  0.34863627  0.21527859     0.06700
C808        C  0.73592589  0.34781199  0.21862437    -0.27500
H809        H  0.75335285  0.28912661  0.19999449     0.11400
H810        H  0.71867232  0.25323442  0.19781385     0.12600
H811        H  0.69443901  0.34146105  0.22221677     0.11700
H812        H  0.65964888  0.30574016  0.21699373     0.10900
H813        H  0.64008353  0.26507044  0.20768097     0.16300
H814        H  0.67779896  0.23161300  0.19848169     0.12200
H815        H  0.77275813  0.32955241  0.20691152     0.15100
H816        H  0.73558480  0.36295344  0.22377835     0.14800
C817        C  0.89092316  0.46157920  0.54957007    -0.18100
C818        C  0.88992226  0.46249802  0.51615706    -0.20200
C819        C  0.86965740  0.44967886  0.49971110     0.20400
C820        C  0.85012825  0.43620162  0.51719795    -0.03100
C821        C  0.85114931  0.43523772  0.55091547    -0.06200
C822        C  0.87168836  0.44779320  0.56713923     0.20700
C823        C  0.83168636  0.42137825  0.56829309     0.18900
C824        C  0.81131604  0.40906741  0.55194568    -0.17700
C825        C  0.81029753  0.41004925  0.51859223    -0.19900
C826        C  0.82963254  0.42335505  0.50098529     0.20400
C827        C  0.82884749  0.42373682  0.46744324    -0.32900
C828        C  0.84830874  0.43669337  0.44967805     0.01100
C829        C  0.86863527  0.44983212  0.46610784    -0.24300
C830        C  0.87270380  0.44600803  0.60053264    -0.28800
C831        C  0.85346591  0.43168205  0.61799494     0.06700
C832        C  0.83296273  0.41971702  0.60162019    -0.27500
H833        H  0.90682118  0.47142708  0.56163984     0.11400
H834        H  0.90506353  0.47303916  0.50314388     0.12600
H835        H  0.79619288  0.39843697  0.56493344     0.11700
H836        H  0.79440688  0.40016585  0.50652224     0.10900
H837        H  0.81307250  0.41362828  0.45516779     0.16300
H838        H  0.88372692  0.46003005  0.45277274     0.12200
H839        H  0.88858676  0.45547247  0.61280735     0.15100
H840        H  0.81797951  0.40883066  0.61473584     0.14800
C841        C  0.88801442  0.45256551  0.01645353    -0.18100
C842        C  0.89014424  0.45153925  0.04960335    -0.20200
C843        C  0.87277748  0.43483123  0.06741257     0.20400
C844        C  0.85317896  0.41879728  0.05160310    -0.03100
C845        C  0.85100466  0.41985931  0.01810987    -0.06200
C846        C  0.86846769  0.43691546  0.00055086     0.20700
C847        C  0.83126561  0.40406951  0.00229770     0.18900
C848        C  0.81410489  0.38706695  0.02005085    -0.17700
C849        C  0.81626677  0.38600472  0.05324777    -0.19900
C850        C  0.83562231  0.40193504  0.06929596     0.20400
C851        C  0.83756902  0.40154204  0.10274771    -0.32900
C852        C  0.85687544  0.41778668  0.11880752     0.01100
C853        C  0.87453818  0.43414952  0.10080047    -0.24300
C854        C  0.86602546  0.43821101  0.96745282    -0.28800
C855        C  0.84624600  0.42284136  0.95150268     0.06700
C856        C  0.82896628  0.40570985  0.96911760    -0.27500
H857        H  0.90159743  0.46573331  0.00327768     0.11400
H858        H  0.90531647  0.46395266  0.06136182     0.12600
H859        H  0.79889895  0.37471246  0.00830503     0.11700
H860        H  0.80267210  0.37286333  0.06643233     0.10900
H861        H  0.82391506  0.38873921  0.11629414     0.16300
H862        H  0.88950539  0.44672566  0.11282009     0.12200
H863        H  0.87947398  0.45147000  0.95418205     0.15100
H864        H  0.81375731  0.39365300  0.95703164     0.14800
C865        C  0.27090018  0.69065843  0.40545527    -0.18100
C866        C  0.29030508  0.71042399  0.39796636    -0.20200
C867        C  0.30774369  0.72073719  0.42040349     0.20400
C868        C  0.30574938  0.71109724  0.45064673    -0.03100
C869        C  0.28619848  0.69096733  0.45809632    -0.06200
C870        C  0.26865065  0.68079850  0.43544363     0.20700
C871        C  0.28417463  0.68109251  0.48819329     0.18900
C872        C  0.30170317  0.69146699  0.51056984    -0.17700
C873        C  0.32101914  0.71152296  0.50327236    -0.19900
C874        C  0.32325348  0.72154928  0.47338293     0.20400
C875        C  0.34268120  0.74165700  0.46564005    -0.32900
C876        C  0.34485556  0.75101938  0.43517404     0.01100
C877        C  0.32719280  0.74046081  0.41292063    -0.24300
C878        C  0.24907867  0.66106544  0.44320641    -0.28800
C879        C  0.24678462  0.65111519  0.47324443     0.06700
C880        C  0.26457932  0.66117008  0.49548414    -0.27500
H881        H  0.25763523  0.68308103  0.38777069     0.11400
H882        H  0.29165734  0.71767962  0.37460271     0.12600
H883        H  0.30043053  0.68411214  0.53382707     0.11700
H884        H  0.33423525  0.71916977  0.52101289     0.10900
H885        H  0.35624172  0.74962456  0.48282497     0.16300
H886        H  0.32858424  0.74767379  0.38948605     0.12200
H887        H  0.23558242  0.65349650  0.42585293     0.15100
H888        H  0.26300756  0.65376745  0.51879461     0.14800
C889        C  0.97146359  0.46333790  0.62933886    -0.18100
C890        C  0.99162247  0.47323672  0.61283533    -0.20200
C891        C  0.01192563  0.48232229  0.62959624     0.20400
C892        C  0.01189077  0.48083369  0.66329170    -0.03100
C893        C  0.99152728  0.47093763  0.67997767    -0.06200
C894        C  0.97126455  0.46245429  0.66289504     0.20700
C895        C  0.99149949  0.47027625  0.71374809     0.18900
C896        C  0.01179394  0.47887116  0.73046496    -0.17700
C897        C  0.03196851  0.48858716  0.71392649    -0.19900
C898        C  0.03220581  0.48991042  0.68038407     0.20400
C899        C  0.05239420  0.50081064  0.66373367    -0.32900
C900        C  0.05259082  0.50315799  0.63021825     0.01100
C901        C  0.03223713  0.49349208  0.61331424    -0.24300
C902        C  0.95122891  0.45412690  0.67964689    -0.28800
C903        C  0.95111082  0.45447622  0.71335376     0.06700
C904        C  0.97128936  0.46192429  0.73021703    -0.27500
H905        H  0.95603228  0.45684111  0.61586885     0.11400
H906        H  0.99134446  0.47415599  0.58696913     0.12600
H907        H  0.01209461  0.47848294  0.75638046     0.11700
H908        H  0.04742154  0.49546959  0.72742827     0.10900
H909        H  0.06795379  0.50832212  0.67707578     0.16300
H910        H  0.03217880  0.49515291  0.58753119     0.12200
H911        H  0.93581261  0.44829464  0.66633765     0.15100
H912        H  0.97144466  0.46224630  0.75616310     0.14800
C913        C  0.01271853  0.52131326  0.36268803    -0.18100
C914        C  0.03206360  0.53053681  0.38158912    -0.20200
C915        C  0.03076734  0.53113232  0.41509457     0.20400
C916        C  0.00984711  0.52279409  0.42969702    -0.03100
C917        C  0.99032861  0.51369558  0.41058208    -0.06200
C918        C  0.99174433  0.51265500  0.37693808     0.20700
C919        C  0.96937856  0.50513597  0.42520891     0.18900
C920        C  0.96809791  0.50582572  0.45869536    -0.17700
C921        C  0.98740639  0.51462318  0.47762754    -0.19900
C922        C  0.00836431  0.52304563  0.46341200     0.20400
C923        C  0.02776681  0.53117133  0.48232750    -0.32900
C924        C  0.04867889  0.53908264  0.46796909     0.01100
C925        C  0.04998250  0.53936362  0.43423840    -0.24300
C926        C  0.97215483  0.50243566  0.35825461    -0.28800
C927        C  0.95116901  0.49351736  0.37275304     0.06700
C928        C  0.95001760  0.49541796  0.40620799    -0.27500
H929        H  0.01415023  0.52071938  0.33693049     0.11400
H930        H  0.04803389  0.53688030  0.37001007     0.12600
H931        H  0.95210460  0.49923699  0.47029788     0.11700
H932        H  0.98592069  0.51464588  0.50343027     0.10900
H933        H  0.02648815  0.53074002  0.50819052     0.16300
H934        H  0.06593144  0.54534519  0.42272722     0.12200
H935        H  0.97321676  0.50104449  0.33254338     0.15100
H936        H  0.93394118  0.48838176  0.41771839     0.14800
C937        C  0.29886882  0.69814182  0.90497984    -0.18100
C938        C  0.27916695  0.67932393  0.91442250    -0.20200
C939        C  0.27242919  0.67680523  0.94644683     0.20400
C940        C  0.28589753  0.69331518  0.96924529    -0.03100
C941        C  0.30570476  0.71238814  0.95967251    -0.06200
C942        C  0.31207331  0.71480552  0.92736538     0.20700
C943        C  0.31895275  0.72913701  0.98231104     0.18900
C944        C  0.31249047  0.72633567  0.01449233    -0.17700
C945        C  0.29295399  0.70733226  0.02404754    -0.19900
C946        C  0.27950845  0.69086109  0.00156645     0.20400
C947        C  0.25981117  0.67194851  0.01087739    -0.32900
C948        C  0.24623977  0.65540278  0.98835663     0.01100
C949        C  0.25255292  0.65803371  0.95609395    -0.24300
C950        C  0.33130344  0.73404549  0.91779552    -0.28800
C951        C  0.34426910  0.75127582  0.93986436     0.06700
C952        C  0.33816244  0.74853106  0.97226244    -0.27500
H953        H  0.30365109  0.69978994  0.88003970     0.11400
H954        H  0.26916221  0.66679066  0.89666458     0.12600
H955        H  0.32245184  0.73891043  0.03222421     0.11700
H956        H  0.28826775  0.70559185  0.04903492     0.10900
H957        H  0.25503281  0.67011475  0.03584705     0.16300
H958        H  0.24231266  0.64527486  0.93872182     0.12200
H959        H  0.33583848  0.73574913  0.89273911     0.15100
H960        H  0.34807991  0.76156327  0.98946832     0.14800
C961        C  0.98722133  0.45601689  0.10989444    -0.18100
C962        C  0.96822251  0.44673178  0.12908158    -0.20200
C963        C  0.97015579  0.44967007  0.16247018     0.20400
C964        C  0.99143426  0.46129217  0.17682849    -0.03100
C965        C  0.01062139  0.47049100  0.15747017    -0.06200
C966        C  0.00850683  0.46828061  0.12377782     0.20700
C967        C  0.03185848  0.48271945  0.17177745     0.18900
C968        C  0.03382501  0.48519965  0.20522238    -0.17700
C969        C  0.01482985  0.47627150  0.22435044    -0.19900
C970        C  0.99353467  0.46458664  0.21037408     0.20400
C971        C  0.97436239  0.45715347  0.22915534    -0.32900
C972        C  0.95310439  0.44665486  0.21475743     0.01100
C973        C  0.95118918  0.44219646  0.18153058    -0.24300
C974        C  0.02758955  0.47921337  0.10455411    -0.28800
C975        C  0.04876747  0.49229106  0.11866340     0.06700
C976        C  0.05071680  0.49317336  0.15237893    -0.27500
H977        H  0.98523761  0.45404256  0.08414989     0.11400
H978        H  0.95195772  0.43778584  0.11769080     0.12600
H979        H  0.05007566  0.49458859  0.21656364     0.11700
H980        H  0.01678733  0.47894706  0.25000002     0.10900
H981        H  0.97608232  0.46070105  0.25462526     0.16300
H982        H  0.93491125  0.43396531  0.17008215     0.12200
H983        H  0.02582902  0.47837192  0.07872390     0.15100
H984        H  0.06688601  0.50310531  0.16375462     0.14800
C985        C  0.19361211  0.60172489  0.81357727    -0.18100
C986        C  0.19406472  0.59970307  0.78032719    -0.20200
C987        C  0.17424023  0.58713743  0.76285291     0.20400
C988        C  0.15370741  0.57660852  0.77902250    -0.03100
C989        C  0.15324461  0.57868760  0.81268955    -0.06200
C990        C  0.17332505  0.59121412  0.82997052     0.20700
C991        C  0.13276854  0.56811276  0.82904278     0.18900
C992        C  0.11292364  0.55566923  0.81144756    -0.17700
C993        C  0.11338392  0.55358002  0.77807462    -0.19900
C994        C  0.13369813  0.56393037  0.76160997     0.20400
C995        C  0.13439511  0.56182724  0.72811930    -0.32900
C996        C  0.15487945  0.57230943  0.71177175     0.01100
C997        C  0.17468051  0.58493472  0.72950958    -0.24300
C998        C  0.17288346  0.59282860  0.86338530    -0.28800
C999        C  0.15264240  0.58207404  0.88013875     0.06700
C1000       C  0.13257071  0.56994477  0.86265979    -0.27500
H1001       H  0.20917668  0.61143085  0.82651193     0.11400
H1002       H  0.20996669  0.60791866  0.76827323     0.12600
H1003       H  0.09702923  0.54743176  0.82352267     0.11700
H1004       H  0.09783364  0.54380106  0.76514357     0.10900
H1005       H  0.11899256  0.55207004  0.71482663     0.16300
H1006       H  0.19056173  0.59309086  0.71737639     0.12200
H1007       H  0.18845715  0.60235249  0.87639285     0.15100
H1008       H  0.11685776  0.56158738  0.87520895     0.14800
C1009       C  0.18570116  0.58552593  0.31147510    -0.18100
C1010       C  0.18555615  0.58264424  0.27826076    -0.20200
C1011       C  0.16534314  0.57080446  0.26135943     0.20400
C1012       C  0.14507553  0.56150634  0.27817525    -0.03100
C1013       C  0.14522395  0.56432350  0.31166666    -0.06200
C1014       C  0.16563202  0.57653621  0.32838561     0.20700
C1015       C  0.12492768  0.55504603  0.32835361     0.18900
C1016       C  0.10470991  0.54300080  0.31157158    -0.17700
C1017       C  0.10455810  0.54032293  0.27839562    -0.19900
C1018       C  0.12463033  0.54962382  0.26150290     0.20400
C1019       C  0.12455229  0.54758954  0.22815566    -0.32900
C1020       C  0.14463654  0.55727197  0.21105724     0.01100
C1021       C  0.16500276  0.56848315  0.22790911    -0.24300
C1022       C  0.16559271  0.57948588  0.36168578    -0.28800
C1023       C  0.14539356  0.57011037  0.37848109     0.06700
C1024       C  0.12516098  0.55794686  0.36154271    -0.27500
H1025       H  0.20151445  0.59485843  0.32392407     0.11400
H1026       H  0.20127388  0.58987102  0.26574025     0.12600
H1027       H  0.08898700  0.53574778  0.32409744     0.11700
H1028       H  0.08873708  0.53111417  0.26591679     0.10900
H1029       H  0.10877041  0.53870198  0.21546485     0.16300
H1030       H  0.18056531  0.57598667  0.21494408     0.12200
H1031       H  0.18125424  0.58875860  0.37455403     0.15100
H1032       H  0.10947991  0.55073707  0.37419904     0.14800
C1033       C  0.98754150  0.50537819  0.97614766    -0.18100
C1034       C  0.96741220  0.49601185  0.95907403    -0.20200
C1035       C  0.96729592  0.49835372  0.92572398     0.20400
C1036       C  0.98763952  0.51051550  0.90944429    -0.03100
C1037       C  0.00795613  0.52025984  0.92676199    -0.06200
C1038       C  0.00790674  0.51743984  0.96022686     0.20700
C1039       C  0.02830425  0.53240914  0.91049988     0.18900
C1040       C  0.02817957  0.53475658  0.87713994    -0.17700
C1041       C  0.00807453  0.52482423  0.85993453    -0.19900
C1042       C  0.98771892  0.51254874  0.87580699     0.20400
C1043       C  0.96749736  0.50188612  0.85861424    -0.32900
C1044       C  0.94716069  0.48959649  0.87469250     0.01100
C1045       C  0.94721753  0.48827803  0.90831758    -0.24300
C1046       C  0.02820453  0.52630567  0.97707032    -0.28800
C1047       C  0.04860042  0.53822395  0.96098368     0.06700
C1048       C  0.04843743  0.54152164  0.92773585    -0.27500
H1049       H  0.98717989  0.50305404  0.00181341     0.11400
H1050       H  0.95192729  0.48666133  0.97191562     0.12600
H1051       H  0.04366682  0.54400432  0.86427865     0.11700
H1052       H  0.00846269  0.52660819  0.83415186     0.10900
H1053       H  0.96758570  0.50295894  0.83272423     0.16300
H1054       H  0.93165290  0.47859099  0.92088272     0.12200
H1055       H  0.02812296  0.52365214  0.00263306     0.15100
H1056       H  0.06402429  0.55045287  0.91498665     0.14800
C1057       C  0.42761520  0.73541328  0.74055176    -0.18100
C1058       C  0.42890524  0.71663303  0.73229944    -0.20200
C1059       C  0.42059587  0.69838988  0.75291692     0.20400
C1060       C  0.41108887  0.69904182  0.78233900    -0.03100
C1061       C  0.40966565  0.71802276  0.79061042    -0.06200
C1062       C  0.41796273  0.73622799  0.76952323     0.20700
C1063       C  0.39995128  0.71878847  0.81980888     0.18900
C1064       C  0.39189786  0.70054959  0.84058851    -0.17700
C1065       C  0.39337600  0.68170486  0.83240862    -0.19900
C1066       C  0.40287640  0.68070778  0.80325222     0.20400
C1067       C  0.40399544  0.66166623  0.79423937    -0.32900
C1068       C  0.41280899  0.66079723  0.76430668     0.01100
C1069       C  0.42134143  0.67937869  0.74419220    -0.24300
C1070       C  0.41667332  0.75506976  0.77772916    -0.28800
C1071       C  0.40722750  0.75619363  0.80680741     0.06700
C1072       C  0.39868696  0.73785712  0.82770155    -0.27500
H1073       H  0.43411113  0.74929254  0.72419172     0.11400
H1074       H  0.43629947  0.71632337  0.70965467     0.12600
H1075       H  0.38443714  0.70084888  0.86317046     0.11700
H1076       H  0.38695806  0.66785411  0.84880472     0.10900
H1077       H  0.39737605  0.64736918  0.80983873     0.16300
H1078       H  0.42846529  0.67895722  0.72132163     0.12200
H1079       H  0.42327179  0.76901347  0.76145515     0.15100
H1080       H  0.39148789  0.73858541  0.85032524     0.14800
C1081       C  0.28351986  0.56663959  0.57011384    -0.18100
C1082       C  0.30428848  0.56841275  0.57486225    -0.20200
C1083       C  0.31773059  0.58053884  0.60101034     0.20400
C1084       C  0.30998365  0.59066126  0.62290887    -0.03100
C1085       C  0.28891938  0.58872904  0.61825765    -0.06200
C1086       C  0.27583957  0.57690832  0.59147925     0.20700
C1087       C  0.28118880  0.59904711  0.63991386     0.18900
C1088       C  0.29452152  0.61085079  0.66635618    -0.17700
C1089       C  0.31542346  0.61277006  0.67096354    -0.19900
C1090       C  0.32335562  0.60288864  0.64924966     0.20400
C1091       C  0.34434583  0.60488335  0.65352836    -0.32900
C1092       C  0.35212264  0.59461611  0.63200593     0.01100
C1093       C  0.33870483  0.58257486  0.60569208    -0.24300
C1094       C  0.25568554  0.57627545  0.58580512    -0.28800
C1095       C  0.24833450  0.58735155  0.60632586     0.06700
C1096       C  0.26071751  0.59809731  0.63398669    -0.27500
H1097       H  0.27357004  0.55746065  0.54945354     0.11400
H1098       H  0.30991935  0.56046470  0.55793337     0.12600
H1099       H  0.28892380  0.61886267  0.68322953     0.11700
H1100       H  0.32546643  0.62212700  0.69144449     0.10900
H1101       H  0.35441438  0.61406204  0.67410524     0.16300
H1102       H  0.34441551  0.57449754  0.58909975     0.12200
H1103       H  0.24600977  0.56783348  0.56453568     0.15100
H1104       H  0.25512927  0.60675940  0.64967185     0.14800
C1105       C  0.39985674  0.70562402  0.33666420    -0.18100
C1106       C  0.40129853  0.68684536  0.32838706    -0.20200
C1107       C  0.40807196  0.68467830  0.29764157     0.20400
C1108       C  0.41356729  0.70173232  0.27507641    -0.03100
C1109       C  0.41229555  0.72075756  0.28350697    -0.06200
C1110       C  0.40530990  0.72263755  0.31441045     0.20700
C1111       C  0.41802835  0.73788025  0.26102455     0.18900
C1112       C  0.42478507  0.73574644  0.23026038    -0.17700
C1113       C  0.42580412  0.71679202  0.22178954    -0.19900
C1114       C  0.42020024  0.69972964  0.24400901     0.20400
C1115       C  0.42080190  0.68054844  0.23550994    -0.32900
C1116       C  0.41498504  0.66326310  0.25760573     0.01100
C1117       C  0.40906679  0.66561974  0.28886855    -0.24300
C1118       C  0.40412612  0.74159652  0.32264338    -0.28800
C1119       C  0.41022611  0.75893940  0.30059611     0.06700
C1120       C  0.41708025  0.75690294  0.26976922    -0.27500
H1121       H  0.39451571  0.70686405  0.36053737     0.11400
H1122       H  0.39697553  0.67394326  0.34598744     0.12600
H1123       H  0.42923301  0.74871433  0.21272240     0.11700
H1124       H  0.43094130  0.71545552  0.19781825     0.10900
H1125       H  0.42565432  0.67898394  0.21142735     0.16300
H1126       H  0.40450655  0.65234322  0.30592002     0.12200
H1127       H  0.39898981  0.74308613  0.34656206     0.15100
H1128       H  0.42174884  0.77014718  0.25261690     0.14800
C1129       C  0.28990786  0.58591343  0.06083903    -0.18100
C1130       C  0.31032308  0.58665555  0.06485283    -0.20200
C1131       C  0.31968246  0.58909051  0.09551834     0.20400
C1132       C  0.30806881  0.59035396  0.12242420    -0.03100
C1133       C  0.28723333  0.58909714  0.11843950    -0.06200
C1134       C  0.27831929  0.58725258  0.08744285     0.20700
C1135       C  0.27541452  0.58984426  0.14545302     0.18900
C1136       C  0.28459375  0.59193850  0.17613712    -0.17700
C1137       C  0.30542152  0.59364043  0.18002787    -0.19900
C1138       C  0.31730545  0.59298526  0.15335049     0.20400
C1139       C  0.33825411  0.59489390  0.15712473    -0.32900
C1140       C  0.34996420  0.59359174  0.13056708     0.01100
C1141       C  0.34043944  0.59036375  0.09979967    -0.24300
C1142       C  0.25802484  0.58686031  0.08363455    -0.28800
C1143       C  0.24614438  0.58754746  0.11042446     0.06700
C1144       C  0.25473445  0.58866687  0.14129879    -0.27500
H1145       H  0.28318094  0.58430900  0.03686900     0.11400
H1146       H  0.31891230  0.58558514  0.04394421     0.12600
H1147       H  0.27577623  0.59250827  0.19710701     0.11700
H1148       H  0.31225783  0.59548912  0.20397538     0.10900
H1149       H  0.34525845  0.59687466  0.18100474     0.16300
H1150       H  0.34929265  0.58916662  0.07928965     0.12200
H1151       H  0.25122897  0.58563834  0.05977867     0.15100
H1152       H  0.24558788  0.58916306  0.16193844     0.14800
C1153       C  0.41590976  0.60466994  0.93952747    -0.18100
C1154       C  0.41531050  0.60223263  0.97275752    -0.20200
C1155       C  0.42172409  0.58801661  0.98693167     0.20400
C1156       C  0.42890741  0.57619043  0.96750753    -0.03100
C1157       C  0.42949964  0.57864080  0.93397107    -0.06200
C1158       C  0.42295346  0.59294422  0.91994676     0.20700
C1159       C  0.43674033  0.56687187  0.91452350     0.18900
C1160       C  0.44310261  0.55261146  0.92870350    -0.17700
C1161       C  0.44251865  0.55018515  0.96196235    -0.19900
C1162       C  0.43554385  0.56196534  0.98157774     0.20400
C1163       C  0.43503723  0.55974540  0.01498372    -0.32900
C1164       C  0.42764526  0.57130179  0.03442843     0.01100
C1165       C  0.42103778  0.58540553  0.02019032    -0.24300
C1166       C  0.42375171  0.59543150  0.88662620    -0.28800
C1167       C  0.43131473  0.58405294  0.86714013     0.06700
C1168       C  0.43766954  0.56971091  0.88127335    -0.27500
H1169       H  0.41089538  0.61575791  0.92914197     0.11400
H1170       H  0.40981062  0.61146600  0.98738704     0.12600
H1171       H  0.44864596  0.54341470  0.91407230     0.11700
H1172       H  0.44758059  0.53913425  0.97235355     0.10900
H1173       H  0.44006877  0.54878241  0.02580766     0.16300
H1174       H  0.41551109  0.59452342  0.03505746     0.12200
H1175       H  0.41888692  0.60655681  0.87592632     0.15100
H1176       H  0.44335070  0.56073559  0.86638618     0.14800
C1177       C  0.46488359  0.57664113  0.46442456    -0.18100
C1178       C  0.46538518  0.57930120  0.43118466    -0.20200
C1179       C  0.44866285  0.58147820  0.41545341     0.20400
C1180       C  0.43119878  0.58087067  0.43336564    -0.03100
C1181       C  0.43065533  0.57810537  0.46696090    -0.06200
C1182       C  0.44762599  0.57605969  0.48257278     0.20700
C1183       C  0.41321336  0.57751793  0.48490564     0.18900
C1184       C  0.39635038  0.57943395  0.46909322    -0.17700
C1185       C  0.39691496  0.58222123  0.43585535    -0.19900
C1186       C  0.41433254  0.58310731  0.41775990     0.20400
C1187       C  0.41518008  0.58617622  0.38439694    -0.32900
C1188       C  0.43252209  0.58672066  0.36632391     0.01100
C1189       C  0.44913861  0.58426552  0.38214934    -0.24300
C1190       C  0.44714389  0.57362719  0.51603492    -0.28800
C1191       C  0.42998167  0.57335679  0.53428017     0.06700
C1192       C  0.41300675  0.57519078  0.51833968    -0.27500
H1193       H  0.47804833  0.57508802  0.47595932     0.11400
H1194       H  0.47891261  0.57971369  0.41777279     0.12600
H1195       H  0.38276684  0.57891581  0.48247943     0.11700
H1196       H  0.38375173  0.58377274  0.42431284     0.10900
H1197       H  0.40219619  0.58784452  0.37246574     0.16300
H1198       H  0.46261198  0.58468990  0.36855104     0.12200
H1199       H  0.46030348  0.57222056  0.52789216     0.15100
H1200       H  0.39958834  0.57485526  0.53195727     0.14800
C1201       C  0.58850564  0.29581950  0.10344312    -0.18100
C1202       C  0.58789175  0.31432694  0.09187454    -0.20200
C1203       C  0.58909142  0.31840646  0.05890869     0.20400
C1204       C  0.59109519  0.30376446  0.03737744    -0.03100
C1205       C  0.59157016  0.28499286  0.04903916    -0.06200
C1206       C  0.59026010  0.28106593  0.08221851     0.20700
C1207       C  0.59323009  0.27012294  0.02753805     0.18900
C1208       C  0.59473098  0.27439022  0.99458123    -0.17700
C1209       C  0.59442627  0.29310688  0.98302382    -0.19900
C1210       C  0.59248764  0.30779567  0.00421874     0.20400
C1211       C  0.59174865  0.32634857  0.99282597    -0.32900
C1212       C  0.58941938  0.34087210  0.01410047     0.01100
C1213       C  0.58819278  0.33679925  0.04713669    -0.24300
C1214       C  0.59065729  0.26242015  0.09368673    -0.28800
C1215       C  0.59215502  0.24739329  0.07253280     0.06700
C1216       C  0.59334381  0.25128760  0.03941042    -0.27500
H1217       H  0.58750764  0.29298706  0.12901732     0.11400
H1218       H  0.58641356  0.32542067  0.10871764     0.12600
H1219       H  0.59610213  0.26323417  0.97773555     0.11700
H1220       H  0.59555970  0.29601695  0.95746782     0.10900
H1221       H  0.59274902  0.32931432  0.96727851     0.16300
H1222       H  0.58657024  0.34794792  0.06371989     0.12200
H1223       H  0.58955168  0.25950106  0.11925753     0.15100
H1224       H  0.59457561  0.23983273  0.02297600     0.14800
C1225       C  0.71355478  0.39682846  0.91726150    -0.18100
C1226       C  0.69374173  0.39647848  0.92505617    -0.20200
C1227       C  0.68261734  0.40227892  0.90223755     0.20400
C1228       C  0.69152117  0.40845133  0.87127462    -0.03100
C1229       C  0.71135604  0.40864186  0.86337459    -0.06200
C1230       C  0.72254400  0.40287371  0.88645163     0.20700
C1231       C  0.71995672  0.41460922  0.83227914     0.18900
C1232       C  0.70893744  0.42042072  0.80942181    -0.17700
C1233       C  0.68944633  0.42041464  0.81730691    -0.19900
C1234       C  0.68064596  0.41450650  0.84812903     0.20400
C1235       C  0.66121757  0.41470351  0.85614551    -0.32900
C1236       C  0.65222473  0.40864487  0.88687517     0.01100
C1237       C  0.66286984  0.40221415  0.90978236    -0.24300
C1238       C  0.74232542  0.40306123  0.87809551    -0.28800
C1239       C  0.75061994  0.40858681  0.84679312     0.06700
C1240       C  0.73937790  0.41454361  0.82432233    -0.27500
H1241       H  0.72180273  0.39230352  0.93529774     0.11400
H1242       H  0.68714823  0.39172673  0.94899006     0.12600
H1243       H  0.71542250  0.42500413  0.78539523     0.11700
H1244       H  0.68125798  0.42503738  0.79930192     0.10900
H1245       H  0.65302539  0.41950971  0.83836706     0.16300
H1246       H  0.65606181  0.39763574  0.93365111     0.12200
H1247       H  0.75087143  0.39842838  0.89550223     0.15100
H1248       H  0.74578021  0.41917947  0.80024215     0.14800
C1249       C  0.50792175  0.54315847  0.87916054    -0.18100
C1250       C  0.51686335  0.53264966  0.89753550    -0.20200
C1251       C  0.52817363  0.52300121  0.88281293     0.20400
C1252       C  0.53113543  0.52467238  0.84929564    -0.03100
C1253       C  0.52188770  0.53506499  0.83068434    -0.06200
C1254       C  0.50998952  0.54408516  0.84568203     0.20700
C1255       C  0.52376704  0.53559447  0.79698316     0.18900
C1256       C  0.53587261  0.52678377  0.78239096    -0.17700
C1257       C  0.54523370  0.51672685  0.80082835    -0.19900
C1258       C  0.54250637  0.51513005  0.83418345     0.20400
C1259       C  0.55001060  0.50322037  0.85240367    -0.32900
C1260       C  0.54591166  0.50019806  0.88557590     0.01100
C1261       C  0.53563699  0.51084369  0.90075944    -0.24300
C1262       C  0.49960699  0.55305103  0.82688097    -0.28800
C1263       C  0.50033435  0.55253235  0.79314777     0.06700
C1264       C  0.51282860  0.54414230  0.77842524    -0.27500
H1265       H  0.49886755  0.55004795  0.89107710     0.11400
H1266       H  0.51449062  0.53163622  0.92322267     0.12600
H1267       H  0.53767811  0.52721435  0.75661096     0.11700
H1268       H  0.55404323  0.50959008  0.78886741     0.10900
H1269       H  0.55808041  0.49533927  0.84034050     0.16300
H1270       H  0.53242863  0.50875433  0.92623978     0.12200
H1271       H  0.48993380  0.55935878  0.83852867     0.15100
H1272       H  0.51361211  0.54380239  0.75252832     0.14800
C1273       C  0.48794384  0.45451898  0.12568103    -0.18100
C1274       C  0.47912826  0.46532814  0.14368599    -0.20200
C1275       C  0.47001846  0.47694753  0.12840818     0.20400
C1276       C  0.46933872  0.47718902  0.09460675    -0.03100
C1277       C  0.47845212  0.46650444  0.07644667    -0.06200
C1278       C  0.48795149  0.45527022  0.09207581     0.20700
C1279       C  0.47876272  0.46776445  0.04268483     0.18900
C1280       C  0.46921839  0.47892569  0.02737060    -0.17700
C1281       C  0.45996570  0.48926602  0.04531789    -0.19900
C1282       C  0.46027500  0.48878253  0.07889113     0.20400
C1283       C  0.45252011  0.50050801  0.09692014    -0.32900
C1284       C  0.45418728  0.50142897  0.13059462     0.01100
C1285       C  0.46241254  0.48905894  0.14622885    -0.24300
C1286       C  0.49805276  0.44575422  0.07386883    -0.28800
C1287       C  0.49936844  0.44788564  0.04027266     0.06700
C1288       C  0.48931202  0.45856613  0.02485950    -0.27500
H1289       H  0.49520269  0.44597726  0.13806967     0.11400
H1290       H  0.47978325  0.46491613  0.16957743     0.12600
H1291       H  0.46925081  0.47999050  0.00150145     0.11700
H1292       H  0.45304392  0.49811843  0.03292719     0.10900
H1293       H  0.44612846  0.50982605  0.08448034     0.16300
H1294       H  0.46381310  0.48963125  0.17211147     0.12200
H1295       H  0.50597067  0.43775430  0.08603309     0.15100
H1296       H  0.49023320  0.46025447  0.99904194     0.14800
C1297       C  0.61285333  0.30560738  0.49015725    -0.18100
C1298       C  0.61100384  0.28557437  0.50023000    -0.20200
C1299       C  0.60219213  0.27690444  0.53036485     0.20400
C1300       C  0.59531540  0.28869199  0.55060399    -0.03100
C1301       C  0.59710694  0.30886446  0.54039571    -0.06200
C1302       C  0.60585767  0.31728691  0.51000066     0.20700
C1303       C  0.58996645  0.32048139  0.56048842     0.18900
C1304       C  0.58127786  0.31189320  0.59070241    -0.17700
C1305       C  0.57966762  0.29201140  0.60092621    -0.19900
C1306       C  0.58662502  0.28033032  0.58104884     0.20400
C1307       C  0.58519531  0.26051784  0.59123954    -0.32900
C1308       C  0.59214010  0.24871110  0.57140596     0.01100
C1309       C  0.60034253  0.25681782  0.54077248    -0.24300
C1310       C  0.60707646  0.33701744  0.49969652    -0.28800
C1311       C  0.59946220  0.34845880  0.51917478     0.06700
C1312       C  0.59124413  0.34023181  0.54979536    -0.27500
H1313       H  0.61962666  0.31189899  0.46671281     0.11400
H1314       H  0.61645859  0.27685701  0.48443226     0.12600
H1315       H  0.57567970  0.32053100  0.60641401     0.11700
H1316       H  0.57293881  0.28574344  0.62439735     0.10900
H1317       H  0.57868320  0.25426803  0.61483221     0.16300
H1318       H  0.60586590  0.24788187  0.52552191     0.12200
H1319       H  0.61352543  0.34318384  0.47606028     0.15100
H1320       H  0.58523233  0.34880291  0.56490985     0.14800
C1321       C  0.72121852  0.41072981  0.41351046    -0.18100
C1322       C  0.70110454  0.40962696  0.42161354    -0.20200
C1323       C  0.68761458  0.41133345  0.39789873     0.20400
C1324       C  0.69457116  0.41442595  0.36577360    -0.03100
C1325       C  0.71475027  0.41535459  0.35758347    -0.06200
C1326       C  0.72816686  0.41344512  0.38151273     0.20700
C1327       C  0.72136123  0.41798660  0.32534651     0.18900
C1328       C  0.70808970  0.42000849  0.30167252    -0.17700
C1329       C  0.68825754  0.41930771  0.30980671    -0.19900
C1330       C  0.68129752  0.41644005  0.34173404     0.20400
C1331       C  0.66124080  0.41544329  0.34993421    -0.32900
C1332       C  0.65398076  0.41199918  0.38178129     0.01100
C1333       C  0.66727925  0.40994877  0.40565651    -0.24300
C1334       C  0.74805278  0.41395494  0.37288589    -0.28800
C1335       C  0.75439147  0.41601945  0.34055062     0.06700
C1336       C  0.74099347  0.41828580  0.31713649    -0.27500
H1337       H  0.73124004  0.40926038  0.43224177     0.11400
H1338       H  0.69605382  0.40735223  0.44645421     0.12600
H1339       H  0.71301752  0.42205520  0.27677605     0.11700
H1340       H  0.67828471  0.42086126  0.29108362     0.10900
H1341       H  0.65111458  0.41702162  0.33145576     0.16300
H1342       H  0.66193446  0.40756042  0.43038285     0.12200
H1343       H  0.75822004  0.41218812  0.39109390     0.15100
H1344       H  0.74577164  0.42017054  0.29216831     0.14800
C1345       C  0.61101116  0.42405829  0.69090296    -0.18100
C1346       C  0.61187544  0.42676994  0.72424378    -0.20200
C1347       C  0.59674416  0.43137615  0.73988762     0.20400
C1348       C  0.58095210  0.43380611  0.72161680    -0.03100
C1349       C  0.58007928  0.43106816  0.68797091    -0.06200
C1350       C  0.59500108  0.42589899  0.67257007     0.20700
C1351       C  0.56400460  0.43311638  0.66984850     0.18900
C1352       C  0.54925947  0.43829883  0.68534944    -0.17700
C1353       C  0.55011500  0.44099089  0.71861712    -0.19900
C1354       C  0.56573197  0.43855923  0.73698427     0.20400
C1355       C  0.56606663  0.44038148  0.77047251    -0.32900
C1356       C  0.58129927  0.43735046  0.78907834     0.01100
C1357       C  0.59683635  0.43317389  0.77346475    -0.24300
C1358       C  0.59341075  0.42232646  0.63923351    -0.28800
C1359       C  0.57708255  0.42387202  0.62103514     0.06700
C1360       C  0.56267497  0.42960419  0.63661783    -0.27500
H1361       H  0.62270118  0.42023768  0.67949323     0.11400
H1362       H  0.62420495  0.42497410  0.73784213     0.12600
H1363       H  0.53687266  0.44001626  0.67176811     0.11700
H1364       H  0.53836084  0.44472112  0.73003237     0.10900
H1365       H  0.55409219  0.44372266  0.78206768     0.16300
H1366       H  0.60878251  0.43096913  0.78742395     0.12200
H1367       H  0.60475263  0.41813670  0.62753928     0.15100
H1368       H  0.55011055  0.43099360  0.62296882     0.14800
C1369       C  0.53267982  0.42110608  0.18511787    -0.18100
C1370       C  0.53384793  0.42376352  0.21845674    -0.20200
C1371       C  0.54929891  0.42080959  0.23646639     0.20400
C1372       C  0.56346737  0.41477498  0.22074127    -0.03100
C1373       C  0.56223012  0.41200799  0.18710510    -0.06200
C1374       C  0.54691516  0.41540532  0.16918177     0.20700
C1375       C  0.57655074  0.40616455  0.17140752     0.18900
C1376       C  0.59176033  0.40287632  0.18943140    -0.17700
C1377       C  0.59303354  0.40568494  0.22269767    -0.19900
C1378       C  0.57907582  0.41176927  0.23854869     0.20400
C1379       C  0.58061616  0.41507202  0.27184313    -0.32900
C1380       C  0.56672855  0.42131522  0.28779330     0.01100
C1381       C  0.55097646  0.42398611  0.26984479    -0.24300
C1382       C  0.54636943  0.41341252  0.13564196    -0.28800
C1383       C  0.56093239  0.40802845  0.11971354     0.06700
C1384       C  0.57571916  0.40409154  0.13793407    -0.27500
H1385       H  0.52076832  0.42371173  0.17176194     0.11400
H1386       H  0.52279092  0.42833609  0.23013334     0.12600
H1387       H  0.60284835  0.39834636  0.17775402     0.11700
H1388       H  0.60506347  0.40324443  0.23601998     0.10900
H1389       H  0.59273305  0.41283849  0.28530964     0.16300
H1390       H  0.54013442  0.42874351  0.28177292     0.12200
H1391       H  0.53479062  0.41633918  0.12194663     0.15100
H1392       H  0.58698127  0.39987841  0.12604129     0.14800
C1393       C  0.51765393  0.50903652  0.27714140    -0.18100
C1394       C  0.52567358  0.49757080  0.29510601    -0.20200
C1395       C  0.52709745  0.49957746  0.32860337     0.20400
C1396       C  0.52083715  0.51363916  0.34415657    -0.03100
C1397       C  0.51288327  0.52536940  0.32596461    -0.06200
C1398       C  0.51101580  0.52279835  0.29234425     0.20700
C1399       C  0.50623174  0.53915523  0.34146957     0.18900
C1400       C  0.50790491  0.54133495  0.37497046    -0.17700
C1401       C  0.51568613  0.52962414  0.39300464    -0.19900
C1402       C  0.52201421  0.51556359  0.37787753     0.20400
C1403       C  0.52901282  0.50303219  0.39585222    -0.32900
C1404       C  0.53486750  0.48859309  0.38049872     0.01100
C1405       C  0.53417977  0.48733468  0.34677706    -0.24300
C1406       C  0.50186430  0.53341522  0.27457651    -0.28800
C1407       C  0.49451262  0.54663869  0.28988109     0.06700
C1408       C  0.49731089  0.54987784  0.32331647    -0.27500
H1409       H  0.51635505  0.50689435  0.25136515     0.11400
H1410       H  0.53043968  0.48683733  0.28280526     0.12600
H1411       H  0.50284714  0.55183206  0.38729588     0.11700
H1412       H  0.51649744  0.53136066  0.41883504     0.10900
H1413       H  0.52946837  0.50419752  0.42175061     0.16300
H1414       H  0.53863635  0.47634476  0.33451486     0.12200
H1415       H  0.49982358  0.53080016  0.24889202     0.15100
H1416       H  0.49154287  0.55986394  0.33545924     0.14800
C1417       C  0.49352172  0.45780008  0.62906624    -0.18100
C1418       C  0.48560324  0.46964779  0.64650547    -0.20200
C1419       C  0.47591715  0.48054209  0.63069508     0.20400
C1420       C  0.47350550  0.47880894  0.59704922    -0.03100
C1421       C  0.48159459  0.46694986  0.57943452    -0.06200
C1422       C  0.49196746  0.45670801  0.59550078     0.20700
C1423       C  0.48018935  0.46620930  0.54566973     0.18900
C1424       C  0.46976261  0.47637692  0.52993924    -0.17700
C1425       C  0.46161464  0.48797488  0.54738284    -0.19900
C1426       C  0.46384473  0.48968779  0.58084196     0.20400
C1427       C  0.45739353  0.50283383  0.59816594    -0.32900
C1428       C  0.46069498  0.50557943  0.63154795     0.01100
C1429       C  0.46941000  0.49383327  0.64775463    -0.24300
C1430       C  0.50159323  0.44655123  0.57766410    -0.28800
C1431       C  0.50155582  0.44705048  0.54392500     0.06700
C1432       C  0.49018108  0.45629063  0.52815471    -0.27500
H1433       H  0.50140986  0.44999350  0.64179200     0.11400
H1434       H  0.48751611  0.47070871  0.67231770     0.12600
H1435       H  0.46841457  0.47584701  0.50406087     0.11700
H1436       H  0.45411071  0.49613395  0.53460605     0.10900
H1437       H  0.45051670  0.51159024  0.58538537     0.16300
H1438       H  0.47197644  0.49572527  0.67345269     0.12200
H1439       H  0.51036935  0.43954036  0.59010743     0.15100
H1440       H  0.48992776  0.45662116  0.50221678     0.14800
loop_ 
_geom_bond_atom_site_label_1 
_geom_bond_atom_site_label_2 
_geom_bond_distance 
_geom_bond_site_symmetry_2 
_ccdc_geom_bond_type 
O1           Mg3   2.134       .  S
O1           Mg9   2.129       .  S
O1           C36   1.239       .  S
C2           O15   1.236       .  S
C2           O39   1.269       .  A
C2           H41   1.081       .  S
Mg3          O32   2.153       .  S
Mg3          O47   2.344       .  S
Mg3          O43   2.276       .  S
Mg3          O14   2.314       .  S
O4          Mg46   2.151       .  S
O4          Mg29   2.135       .  S
O4           C25   1.235       .  S
O5           C36   1.273       .  A
O5          Mg29   2.303       .  S
C6            O8   1.271       .  A
C6           O20   1.278       .  A
C6         C1431   1.484       .  S
O7           C35   1.273       .  A
O7           Mg9   2.307       .  S
O8          Mg40   2.253       .  S
Mg9          O15   2.118       .  S
Mg9          O23   2.228       .  S
Mg9          O11   2.287       .  S
C10          O48   1.277       .  A
C10          O16   1.276       .  A
C10        C1404   1.490       .  S
O11          C18   1.272       .  A
H12          C25   1.081       .  S
C13          O27   1.237       .  S
C13          O28   1.271       .  A
C13          H38   1.081       .  S
O14          C37   1.273       .  A
O15         Mg29   2.138       .  S
O16         Mg46   2.296       .  S
C17          O30   1.276       .  A
C17          O22   1.279       .  A
C17        C1380   1.488       .  S
C18          O45   1.276       .  A
C18        C1332   1.482       .  S
Mg19         O26   2.167       .  S
Mg19         O27   2.158       .  S
Mg19         O20   2.325       .  S
Mg19         O21   2.292       .  S
Mg19         O48   2.301       .  S
O21          C25   1.269       .  A
O22         Mg29   2.319       .  S
O23          C42   1.268       .  A
O24          C44   1.276       .  A
O24         Mg40   2.312       .  S
O26         Mg40   2.152       .  S
O26          C37   1.238       .  S
O27         Mg46   2.152       .  S
O28         Mg40   2.304       .  S
Mg29         O45   2.292       .  S
O30         Mg46   2.278       .  S
H31          C36   1.081       .  S
O32         Mg40   2.141       .  S
O32          C35   1.239       .  S
H33          C35   1.081       .  S
H34          C37   1.081       .  S
O39         Mg46   2.287       .  S
C42          O47   1.279       .  A
C42        C1311   1.485       .  S
O43          C44   1.273       .  A
C44        C1359   1.489       .  S
O49         Mg51   2.128   1_556  S
O49         Mg57   2.141       .  S
O49          C84   1.238       .  S
C50          O63   1.236       .  S
C50          O87   1.268       .  A
C50          H89   1.081       .  S
Mg51         O80   2.158   1_554  S
Mg51         O95   2.324       .  S
Mg51         O91   2.263       .  S
Mg51         O62   2.311       .  S
O52         Mg94   2.148       .  S
O52         Mg77   2.135       .  S
O52          C73   1.235       .  S
O53          C84   1.271       .  A
O53         Mg77   2.299       .  S
C54          O56   1.270       .  A
C54          O68   1.279   1_554  A
C54        C1287   1.482       .  S
O55          C83   1.272       .  A
O55         Mg57   2.302       .  S
O56         Mg88   2.247       .  S
Mg57         O63   2.121       .  S
Mg57         O71   2.229       .  S
Mg57         O59   2.284       .  S
C58          O96   1.278       .  A
C58          O64   1.276       .  A
C58        C1260   1.492       .  S
O59          C66   1.271       .  A
H60          C73   1.081       .  S
C61          O75   1.237       .  S
C61          O76   1.272       .  A
C61          H86   1.081       .  S
O62          C85   1.272       .  A
O63         Mg77   2.143       .  S
O64         Mg94   2.299       .  S
C65          O78   1.276       .  A
C65          O70   1.278       .  A
C65        C1356   1.490       .  S
C66          O93   1.274       .  A
C66        C1236   1.477       .  S
Mg67         O74   2.172   1_556  S
Mg67         O75   2.156       .  S
Mg67         O68   2.328       .  S
Mg67         O69   2.294       .  S
Mg67         O96   2.309       .  S
O69          C73   1.269       .  A
O70         Mg77   2.316       .  S
O71          C90   1.267   1_556  A
O72          C92   1.276       .  A
O72         Mg88   2.317       .  S
O74         Mg88   2.156       .  S
O74          C85   1.236       .  S
O75         Mg94   2.157       .  S
O76         Mg88   2.307   1_556  S
Mg77         O93   2.271       .  S
O78         Mg94   2.282       .  S
H79          C84   1.081       .  S
O80         Mg88   2.145   1_556  S
O80          C83   1.238       .  S
H81          C83   1.081       .  S
H82          C85   1.081       .  S
O87         Mg94   2.286       .  S
C90          O95   1.277       .  A
C90        C1212   1.481       .  S
O91          C92   1.272       .  A
C92        C1383   1.487       .  S
O97         Mg99   2.137       .  S
O97        Mg105   2.133       .  S
O97         C132   1.239       .  S
C98         O111   1.236       .  S
C98         O135   1.268       .  A
C98         H137   1.081       .  S
Mg99        O128   2.165       .  S
Mg99        O143   2.352       .  S
Mg99        O139   2.289       .  S
Mg99        O110   2.311       .  S
O100       Mg142   2.149       .  S
O100       Mg125   2.131       .  S
O100        C121   1.235       .  S
O101        C132   1.273       .  A
O101       Mg125   2.303       .  S
C102        O104   1.272       .  A
C102        O116   1.277       .  A
C102       C1407   1.486       .  S
O103        C131   1.274       .  A
O103       Mg105   2.306       .  S
O104       Mg136   2.267       .  S
Mg105       O111   2.102       .  S
Mg105       O119   2.213       .  S
Mg105       O107   2.293       .  S
C106        O144   1.276       .  A
C106        O112   1.275       .  A
C106       C1284   1.487       .  S
O107        C114   1.274       .  A
H108        C121   1.081       .  S
C109        O123   1.236       .  S
C109        O124   1.271       .  A
C109        H134   1.081       .  S
O110        C133   1.272       .  A
O111       Mg125   2.133       .  S
O112       Mg142   2.284       .  S
C113        O126   1.275       .  A
C113        O118   1.276       .  A
C113       C1164   1.478       .  S
C114        O141   1.274       .  A
C114       C1140   1.481       .  S
Mg115       O122   2.167       .  S
Mg115       O123   2.158       .  S
Mg115       O116   2.315       .  S
Mg115       O117   2.292       .  S
Mg115       O144   2.297       .  S
O117        C121   1.268       .  A
O118       Mg125   2.294       .  S
O119        C138   1.267       .  A
O120        C140   1.275       .  A
O120       Mg136   2.301       .  S
O122       Mg136   2.158       .  S
O122        C133   1.237       .  S
O123       Mg142   2.150       .  S
O124       Mg136   2.303       .  S
Mg125       O141   2.292       .  S
O126       Mg142   2.278       .  S
H127        C132   1.081       .  S
O128       Mg136   2.151       .  S
O128        C131   1.240       .  S
H129        C131   1.081       .  S
H130        C133   1.081       .  S
O135       Mg142   2.284       .  S
C138        O143   1.280       .  A
C138       C1116   1.479       .  S
O139        C140   1.275       .  A
C140       C1188   1.488       .  S
O145       Mg147   2.124       .  S
O145       Mg153   2.137       .  S
O145        C180   1.238       .  S
C146        O159   1.236       .  S
C146        O183   1.269       .  A
C146        H185   1.081       .  S
Mg147       O176   2.156       .  S
Mg147       O191   2.342       .  S
Mg147       O187   2.255       .  S
Mg147       O158   2.316       .  S
O148       Mg190   2.150       .  S
O148       Mg173   2.138       .  S
O148        C169   1.235       .  S
O149        C180   1.271       .  A
O149       Mg173   2.295       .  S
C150        O152   1.270       .  A
C150        O164   1.280       .  A
C150       C1263   1.488       .  S
O151        C179   1.272       .  A
O151       Mg153   2.298       .  S
O152       Mg184   2.251       .  S
Mg153       O159   2.122       .  S
Mg153       O167   2.232       .  S
Mg153       O155   2.276       .  S
C154        O192   1.276       .  A
C154        O160   1.279       .  A
C154       C1428   1.488       .  S
O155        C162   1.272       .  A
H156        C169   1.081       .  S
C157        O171   1.238       .  S
C157        O172   1.273       .  A
C157        H182   1.081       .  S
O158        C181   1.273       .  A
O159       Mg173   2.146       .  S
O160       Mg190   2.311       .  S
C161        O174   1.279       .  A
C161        O166   1.279       .  A
C161       C1191   1.493       .  S
C162        O189   1.276       .  A
C162       C1092   1.484       .  S
Mg163       O170   2.164       .  S
Mg163       O171   2.163       .  S
Mg163       O164   2.347       .  S
Mg163       O165   2.296       .  S
Mg163       O192   2.284       .  S
O165        C169   1.269       .  A
O166       Mg173   2.315       .  S
O167        C186   1.270       .  A
O168        C188   1.274       .  A
O168       Mg184   2.299       .  S
O170       Mg184   2.145       .  S
O170        C181   1.237       .  S
O171       Mg190   2.168       .  S
O172       Mg184   2.308       .  S
Mg173       O189   2.290       .  S
O174       Mg190   2.305       .  S
H175        C180   1.081       .  S
O176       Mg184   2.141       .  S
O176        C179   1.238       .  S
H177        C179   1.081       .  S
H178        C181   1.081       .  S
O183       Mg190   2.288       .  S
C186        O191   1.277       .  A
C186       C1068   1.480       .  S
O187        C188   1.271       .  A
C188       C1167   1.478       .  S
O193       Mg195   2.132   1_554  S
O193       Mg201   2.131       .  S
O193        C228   1.237       .  S
C194        O207   1.235       .  S
C194        O231   1.267       .  A
C194        H233   1.081       .  S
Mg195       O224   2.153   1_556  S
Mg195       O239   2.343       .  S
Mg195       O235   2.259       .  S
Mg195       O206   2.315       .  S
O196       Mg238   2.148       .  S
O196       Mg221   2.141       .  S
O196        C217   1.236       .  S
O197        C228   1.272       .  A
O197       Mg221   2.302       .  S
C198        O200   1.273       .  A
C198        O212   1.279   1_556  A
C198       C1047   1.486       .  S
O199        C227   1.275       .  A
O199       Mg201   2.311       .  S
O200       Mg232   2.260       .  S
Mg201       O207   2.096       .  S
Mg201       O215   2.206       .  S
Mg201       O203   2.295       .  S
C202        O240   1.277       .  A
C202        O208   1.272       .  A
C202        C975   1.489       .  S
O203        C210   1.273       .  A
H204        C217   1.081       .  S
C205        O219   1.236       .  S
C205        O220   1.271       .  A
C205        H230   1.081       .  S
O206        C229   1.273       .  A
O207       Mg221   2.135       .  S
O208       Mg238   2.270       .  S
C209        O222   1.273       .  A
C209        O214   1.277       .  A
C209       C1020   1.481       .  S
C210        O237   1.275       .  A
C210       C1143   1.477       .  S
Mg211       O218   2.171   1_554  S
Mg211       O219   2.151       .  S
Mg211       O212   2.329       .  S
Mg211       O213   2.299       .  S
Mg211       O240   2.312       .  S
O213        C217   1.270       .  A
O214       Mg221   2.312       .  S
O215        C234   1.265   1_554  A
O216        C236   1.278       .  A
O216       Mg232   2.337       .  S
O218       Mg232   2.157       .  S
O218        C229   1.236       .  S
O219       Mg238   2.153       .  S
O220       Mg232   2.308   1_554  S
Mg221       O237   2.293       .  S
O222       Mg238   2.255       .  S
H223        C228   1.081       .  S
O224       Mg232   2.160   1_554  S
O224        C227   1.241       .  S
H225        C227   1.081       .  S
H226        C229   1.081       .  S
O231       Mg238   2.277       .  S
C234        O239   1.278       .  A
C234        C948   1.479       .  S
O235        C236   1.273       .  A
C236        C999   1.491       .  S
O241       Mg243   2.146       .  S
O241       Mg249   2.132       .  S
O241        C276   1.239       .  S
C242        O255   1.235       .  S
C242        O279   1.266       .  A
C242        H281   1.081       .  S
Mg243       O272   2.147       .  S
Mg243       O287   2.355       .  S
Mg243       O283   2.274       .  S
Mg243       O254   2.321       .  S
O244       Mg286   2.152       .  S
O244       Mg269   2.140       .  S
O244        C265   1.236       .  S
O245        C276   1.273       .  A
O245       Mg269   2.305       .  S
C246        O248   1.272       .  A
C246        O260   1.278       .  A
C246        C900   1.485       .  S
O247        C275   1.274       .  A
O247       Mg249   2.312       .  S
O248       Mg280   2.258       .  S
Mg249       O255   2.097       .  S
Mg249       O263   2.207       .  S
Mg249       O251   2.308       .  S
C250        O288   1.277       .  A
C250        O256   1.273       .  A
C250        C924   1.489       .  S
O251        C258   1.276       .  A
H252        C265   1.081       .  S
C253        O267   1.235       .  S
C253        O268   1.270       .  A
C253        H278   1.081       .  S
O254        C277   1.275       .  A
O255       Mg269   2.129       .  S
O256       Mg286   2.275       .  S
C257        O270   1.273       .  A
C257        O262   1.279       .  A
C257       C1023   1.481       .  S
C258        O285   1.277       .  A
C258        C879   1.489       .  S
Mg259       O266   2.173       .  S
Mg259       O267   2.155       .  S
Mg259       O260   2.322       .  S
Mg259       O261   2.295       .  S
Mg259       O288   2.305       .  S
O261        C265   1.269       .  A
O262       Mg269   2.325       .  S
O263        C282   1.266       .  A
O264        C284   1.276       .  A
O264       Mg280   2.324       .  S
O266       Mg280   2.157       .  S
O266        C277   1.238       .  S
O267       Mg286   2.149       .  S
O268       Mg280   2.304       .  S
Mg269       O285   2.293       .  S
O270       Mg286   2.249       .  S
H271        C276   1.081       .  S
O272       Mg280   2.153       .  S
O272        C275   1.240       .  S
H273        C275   1.081       .  S
H274        C277   1.081       .  S
O279       Mg286   2.277       .  S
C282        O287   1.279       .  A
C282       C1095   1.473       .  S
O283        C284   1.274       .  A
C284        C996   1.492       .  S
O289       Mg291   2.134       .  S
O289       Mg297   2.141       .  S
O289        C324   1.238       .  S
C290        O303   1.236       .  S
C290        O327   1.268       .  A
C290        H329   1.081       .  S
Mg291       O320   2.156       .  S
Mg291       O335   2.354       .  S
Mg291       O331   2.265       .  S
Mg291       O302   2.318       .  S
O292       Mg334   2.145       .  S
O292       Mg317   2.124       .  S
O292        C313   1.235       .  S
O293        C324   1.271       .  A
O293       Mg317   2.296       .  S
C294        O296   1.271       .  A
C294        O308   1.279       .  A
C294        C927   1.484       .  S
O295        C323   1.272       .  A
O295       Mg297   2.304       .  S
O296       Mg328   2.251       .  S
Mg297       O303   2.112       .  S
Mg297       O311   2.221       .  S
Mg297       O299   2.293       .  S
C298        O336   1.278       .  A
C298        O304   1.274       .  A
C298        C972   1.487       .  S
O299        C306   1.274       .  A
H300        C313   1.081       .  S
C301        O315   1.236       .  S
C301        O316   1.271       .  A
C301        H326   1.081       .  S
O302        C325   1.273       .  A
O303       Mg317   2.147       .  S
O304       Mg334   2.278       .  S
C305        O318   1.275       .  A
C305        O310   1.276       .  A
C305        C852   1.486       .  S
C306        O333   1.273       .  A
C306        C807   1.473       .  S
Mg307       O314   2.177       .  S
Mg307       O315   2.155       .  S
Mg307       O308   2.331       .  S
Mg307       O309   2.292       .  S
Mg307       O336   2.306       .  S
O309        C313   1.269       .  A
O310       Mg317   2.307       .  S
O311        C330   1.269       .  A
O312        C332   1.276       .  A
O312       Mg328   2.314       .  S
O314       Mg328   2.157       .  S
O314        C325   1.237       .  S
O315       Mg334   2.151       .  S
O316       Mg328   2.303       .  S
Mg317       O333   2.260       .  S
O318       Mg334   2.276       .  S
H319        C324   1.081       .  S
O320       Mg328   2.151       .  S
O320        C323   1.238       .  S
H321        C323   1.081       .  S
H322        C325   1.081       .  S
O327       Mg334   2.280       .  S
C330        O335   1.280       .  A
C330       C1335   1.486       .  S
O331        C332   1.273       .  A
C332        C828   1.487       .  S
O337       Mg339   2.140       .  S
O337       Mg345   2.126       .  S
O337        C372   1.240       .  S
C338        O351   1.236       .  S
C338        O375   1.268       .  A
C338        H377   1.081       .  S
Mg339       O368   2.163       .  S
Mg339       O383   2.355       .  S
Mg339       O379   2.275       .  S
Mg339       O350   2.310       .  S
O340       Mg382   2.150       .  S
O340       Mg365   2.133       .  S
O340        C361   1.236       .  S
O341        C372   1.274       .  A
O341       Mg365   2.309       .  S
C342        O344   1.271       .  A
C342        O356   1.277       .  A
C342       C1044   1.482       .  S
O343        C371   1.273       .  A
O343       Mg345   2.303       .  S
O344       Mg376   2.258       .  S
Mg345       O351   2.105       .  S
Mg345       O359   2.201       .  S
Mg345       O347   2.267       .  S
C346        O384   1.275       .  A
C346        O352   1.277       .  A
C346        C903   1.486       .  S
O347        C354   1.270       .  A
H348        C361   1.081       .  S
C349        O363   1.237       .  S
C349        O364   1.271       .  A
C349        H374   1.081       .  S
O350        C373   1.272       .  A
O351       Mg365   2.137       .  S
O352       Mg382   2.304       .  S
C353        O366   1.277       .  A
C353        O358   1.281       .  A
C353        C831   1.489       .  S
C354        O381   1.277       .  A
C354        C783   1.483       .  S
Mg355       O362   2.160       .  S
Mg355       O363   2.155       .  S
Mg355       O356   2.323       .  S
Mg355       O357   2.291       .  S
Mg355       O384   2.276       .  S
O357        C361   1.269       .  A
O358       Mg365   2.328       .  S
O359        C378   1.266       .  A
O360        C380   1.275       .  A
O360       Mg376   2.299       .  S
O362       Mg376   2.150       .  S
O362        C373   1.236       .  S
O363       Mg382   2.155       .  S
O364       Mg376   2.304       .  S
Mg365       O381   2.316       .  S
O366       Mg382   2.278       .  S
H367        C372   1.081       .  S
O368       Mg376   2.141       .  S
O368        C371   1.240       .  S
H369        C371   1.081       .  S
H370        C373   1.081       .  S
O375       Mg382   2.284       .  S
C378        O383   1.278       .  A
C378       C1239   1.481       .  S
O379        C380   1.274       .  A
C380        C855   1.484       .  S
O385       Mg387   2.133       .  S
O385       Mg393   2.145       .  S
O385        C420   1.238       .  S
C386        O399   1.235       .  S
C386        O423   1.267       .  A
C386        H425   1.081       .  S
Mg387       O416   2.154       .  S
Mg387       O431   2.323       .  S
Mg387       O427   2.252       .  S
Mg387       O398   2.311       .  S
O388       Mg430   2.146       .  S
O388       Mg413   2.133       .  S
O388        C409   1.236       .  S
O389        C420   1.271       .  A
O389       Mg413   2.295       .  S
C390        O392   1.272       .  A
C390        O404   1.278       .  A
C390        C756   1.486       .  S
O391        C419   1.272       .  A
O391       Mg393   2.303       .  S
O392       Mg424   2.257       .  S
Mg393       O399   2.101       .  S
Mg393       O407   2.224       .  S
Mg393       O395   2.287       .  S
C394        O432   1.275       .  A
C394        O400   1.272       .  A
C394        C732   1.481       .  S
O395        C402   1.273       .  A
H396        C409   1.081       .  S
C397        O411   1.235       .  S
C397        O412   1.270       .  A
C397        H422   1.081       .  S
O398        C421   1.272       .  A
O399       Mg413   2.147       .  S
O400       Mg430   2.273       .  S
C401        O414   1.273       .  A
C401        O406   1.279       .  A
C401        C708   1.484       .  S
C402        O429   1.275       .  A
C402        C804   1.469       .  S
Mg403       O410   2.157       .  S
Mg403       O411   2.150       .  S
Mg403       O404   2.326       .  S
Mg403       O405   2.296       .  S
Mg403       O432   2.282       .  S
O405        C409   1.270       .  A
O406       Mg413   2.321       .  S
O407        C426   1.268       .  A
O408        C428   1.275       .  A
O408       Mg424   2.309       .  S
O410       Mg424   2.156       .  S
O410        C421   1.237       .  S
O411       Mg430   2.149       .  S
O412       Mg424   2.301       .  S
Mg413       O429   2.279       .  S
O414       Mg430   2.253       .  S
H415        C420   1.081       .  S
O416       Mg424   2.147       .  S
O416        C419   1.238       .  S
H417        C419   1.081       .  S
H418        C421   1.081       .  S
O423       Mg430   2.276       .  S
C426        O431   1.276       .  A
C426       C1215   1.479       .  S
O427        C428   1.271       .  A
C428        C687   1.483   1_554  S
O433       Mg435   2.131       .  S
O433       Mg441   2.136       .  S
O433        C468   1.239       .  S
C434        O447   1.235       .  S
C434        O471   1.267       .  A
C434        H473   1.081       .  S
Mg435       O464   2.160       .  S
Mg435       O479   2.345       .  S
Mg435       O475   2.258       .  S
Mg435       O446   2.310       .  S
O436       Mg478   2.151       .  S
O436       Mg461   2.136       .  S
O436        C457   1.236       .  S
O437        C468   1.272       .  A
O437       Mg461   2.302       .  S
C438        O440   1.274       .  A
C438        O452   1.276       .  A
C438        C660   1.487       .  S
O439        C467   1.273       .  A
O439       Mg441   2.303       .  S
O440       Mg472   2.271       .  S
Mg441       O447   2.100       .  S
Mg441       O455   2.212       .  S
Mg441       O443   2.271       .  S
C442        O480   1.275       .  A
C442        O448   1.274       .  A
C442        C636   1.484       .  S
O443        C450   1.271       .  A
H444        C457   1.081       .  S
C445        O459   1.236       .  S
C445        O460   1.271       .  A
C445        H470   1.081       .  S
O446        C469   1.272       .  A
O447       Mg461   2.139       .  S
O448       Mg478   2.283       .  S
C449        O462   1.274       .  A
C449        O454   1.279       .  A
C449        C684   1.483       .  S
C450        O477   1.276       .  A
C450        C780   1.482       .  S
Mg451       O458   2.158       .  S
Mg451       O459   2.155       .  S
Mg451       O452   2.310       .  S
Mg451       O453   2.293       .  S
Mg451       O480   2.284       .  S
O453        C457   1.269       .  A
O454       Mg461   2.316       .  S
O455        C474   1.266       .  A
O456        C476   1.277       .  A
O456       Mg472   2.315       .  S
O458       Mg472   2.155       .  S
O458        C469   1.236       .  S
O459       Mg478   2.147       .  S
O460       Mg472   2.301       .  S
Mg461       O477   2.311       .  S
O462       Mg478   2.259       .  S
H463        C468   1.081       .  S
O464       Mg472   2.150       .  S
O464        C467   1.239       .  S
H465        C467   1.081       .  S
H466        C469   1.081       .  S
O471       Mg478   2.280       .  S
C474        O479   1.278       .  A
C474       C1308   1.479       .  S
O475        C476   1.273       .  A
C476        C711   1.484       .  S
O481       Mg483   2.137       .  S
O481       Mg489   2.134       .  S
O481        C516   1.238       .  S
C482        O495   1.235       .  S
C482        O519   1.267       .  A
C482        H521   1.081       .  S
Mg483       O512   2.158       .  S
Mg483       O527   2.366       .  S
Mg483       O523   2.271       .  S
Mg483       O494   2.320       .  S
O484       Mg526   2.152       .  S
O484       Mg509   2.119       .  S
O484        C505   1.235       .  S
O485        C516   1.272       .  A
O485       Mg509   2.300       .  S
C486        O488   1.272       .  A
C486        O500   1.277       .  A
C486        C663   1.481       .  S
O487        C515   1.273       .  A
O487       Mg489   2.306       .  S
O488       Mg520   2.266       .  S
Mg489       O495   2.103       .  S
Mg489       O503   2.212       .  S
Mg489       O491   2.290       .  S
C490        O528   1.276       .  A
C490        O496   1.271       .  A
C490        C735   1.481       .  S
O491        C498   1.273       .  A
H492        C505   1.081       .  S
C493        O507   1.236       .  S
C493        O508   1.270       .  A
C493        H518   1.081       .  S
O494        C517   1.274       .  A
O495       Mg509   2.136       .  S
O496       Mg526   2.252       .  S
C497        O510   1.274       .  A
C497        O502   1.276       .  A
C497        C615   1.483       .  S
C498        O525   1.273       .  A
C498       C1119   1.480       .  S
Mg499       O506   2.168       .  S
Mg499       O507   2.162       .  S
Mg499       O500   2.323       .  S
Mg499       O501   2.288       .  S
Mg499       O528   2.297       .  S
O501        C505   1.268       .  A
O502       Mg509   2.297       .  S
O503        C522   1.267       .  A
O504        C524   1.275       .  A
O504       Mg520   2.294       .  S
O506       Mg520   2.148       .  S
O506        C517   1.238       .  S
O507       Mg526   2.146       .  S
O508       Mg520   2.301       .  S
Mg509       O525   2.270       .  S
O510       Mg526   2.273       .  S
H511        C516   1.081       .  S
O512       Mg520   2.150       .  S
O512        C515   1.238       .  S
H513        C515   1.081       .  S
H514        C517   1.081       .  S
O519       Mg526   2.278       .  S
C522        O527   1.281       .  A
C522        C876   1.483       .  S
O523        C524   1.274       .  A
C524        C591   1.482       .  S
O529       Mg531   2.128       .  S
O529       Mg537   2.133       .  S
O529        C564   1.237       .  S
C530        O543   1.236       .  S
C530        O567   1.268       .  A
C530        H569   1.081       .  S
Mg531       O560   2.157       .  S
Mg531       O575   2.355       .  S
Mg531       O571   2.258       .  S
Mg531       O542   2.316       .  S
O532       Mg574   2.148       .  S
O532       Mg557   2.128       .  S
O532        C553   1.234       .  S
O533        C564   1.271       .  A
O533       Mg557   2.297       .  S
C534        O536   1.271       .  A
C534        O548   1.277       .  A
C534        C759   1.481       .  S
O535        C563   1.273       .  A
O535       Mg537   2.308       .  S
O536       Mg568   2.253       .  S
Mg537       O543   2.110       .  S
Mg537       O551   2.200       .  S
Mg537       O539   2.293       .  S
C538        O576   1.277       .  A
C538        O544   1.274       .  A
C538        C639   1.485       .  S
O539        C546   1.272       .  A
H540        C553   1.081       .  S
C541        O555   1.236       .  S
C541        O556   1.270       .  A
C541        H566   1.081       .  S
O542        C565   1.273       .  A
O543       Mg557   2.138       .  S
O544       Mg574   2.286       .  S
C545        O558   1.274       .  A
C545        O550   1.276       .  A
C545        C588   1.482       .  S
C546        O573   1.274       .  A
C546       C1071   1.483       .  S
Mg547       O554   2.167       .  S
Mg547       O555   2.155       .  S
Mg547       O548   2.328       .  S
Mg547       O549   2.291       .  S
Mg547       O576   2.290       .  S
O549        C553   1.268       .  A
O550       Mg557   2.300       .  S
O551        C570   1.265       .  A
O552        C572   1.274   1_556  A
O552       Mg568   2.299       .  S
O554       Mg568   2.150       .  S
O554        C565   1.237       .  S
O555       Mg574   2.145       .  S
O556       Mg568   2.301       .  S
Mg557       O573   2.269       .  S
O558       Mg574   2.262       .  S
H559        C564   1.081       .  S
O560       Mg568   2.154       .  S
O560        C563   1.238       .  S
H561        C563   1.081       .  S
H562        C565   1.081       .  S
O567       Mg574   2.284       .  S
C570        O575   1.280       .  A
C570        C951   1.484       .  S
O571        C572   1.273   1_556  A
C572        C612   1.482       .  S
C577        H593   1.084       .  S
C577        C578   1.398       .  A
C577        C582   1.403       .  A
C578        H594   1.084       .  S
C578        C579   1.403       .  A
C579        C589   1.401       .  A
C579        C580   1.411       .  A
C580        C586   1.411       .  A
C580        C581   1.411       .  A
C581        C583   1.412       .  A
C581        C582   1.410       .  A
C582        C590   1.400       .  A
C583        C592   1.404       .  A
C583        C584   1.404       .  A
C584        H595   1.083       .  S
C584        C585   1.399       .  A
C585        H596   1.084       .  S
C585        C586   1.404       .  A
C586        C587   1.403       .  A
C587        H597   1.084       .  S
C587        C588   1.408       .  A
C588        C589   1.407       .  A
C589        H598   1.084       .  S
C590        H599   1.084       .  S
C590        C591   1.408       .  A
C591        C592   1.407       .  A
C592        H600   1.084       .  S
C601        H617   1.084       .  S
C601        C602   1.400       .  A
C601        C606   1.404       .  A
C602        H618   1.084       .  S
C602        C603   1.404       .  A
C603        C613   1.404       .  A
C603        C604   1.411       .  A
C604        C610   1.411       .  A
C604        C605   1.411       .  A
C605        C607   1.411       .  A
C605        C606   1.412       .  A
C606        C614   1.405       .  A
C607        C616   1.400       .  A
C607        C608   1.403       .  A
C608        H619   1.084       .  S
C608        C609   1.397       .  A
C609        H620   1.084       .  S
C609        C610   1.402       .  A
C610        C611   1.400       .  A
C611        H621   1.084       .  S
C611        C612   1.406       .  A
C612        C613   1.410       .  A
C613        H622   1.084       .  S
C614        H623   1.084       .  S
C614        C615   1.409       .  A
C615        C616   1.407       .  A
C616        H624   1.084       .  S
C625        H641   1.084       .  S
C625        C626   1.399       .  A
C625        C630   1.404       .  A
C626        H642   1.083       .  S
C626        C627   1.403   1_565  A
C627        C637   1.405       .  A
C627        C628   1.413       .  A
C628        C634   1.410       .  A
C628        C629   1.412   1_545  A
C629        C631   1.413       .  A
C629        C630   1.410       .  A
C630        C638   1.402       .  A
C631        C640   1.404       .  A
C631        C632   1.403   1_565  A
C632        H643   1.084       .  S
C632        C633   1.398       .  A
C633        H644   1.084       .  S
C633        C634   1.404       .  A
C634        C635   1.400       .  A
C635        H645   1.084       .  S
C635        C636   1.409       .  A
C636        C637   1.408       .  A
C637        H646   1.084       .  S
C638        H647   1.084       .  S
C638        C639   1.411       .  A
C639        C640   1.407       .  A
C640        H648   1.084       .  S
C649        H665   1.084       .  S
C649        C650   1.400       .  A
C649        C654   1.404   1_545  A
C650        H666   1.083       .  S
C650        C651   1.404       .  A
C651        C661   1.404       .  A
C651        C652   1.411       .  A
C652        C658   1.411       .  A
C652        C653   1.414   1_545  A
C653        C655   1.411       .  A
C653        C654   1.412       .  A
C654        C662   1.406       .  A
C655        C664   1.404       .  A
C655        C656   1.404       .  A
C656        H667   1.084       .  S
C656        C657   1.399       .  A
C657        H668   1.084       .  S
C657        C658   1.404   1_565  A
C658        C659   1.404       .  A
C659        H669   1.084       .  S
C659        C660   1.409       .  A
C660        C661   1.409       .  A
C661        H670   1.084       .  S
C662        H671   1.084       .  S
C662        C663   1.406       .  A
C663        C664   1.408       .  A
C664        H672   1.084       .  S
C673        H689   1.084       .  S
C673        C674   1.399       .  A
C673        C678   1.404       .  A
C674        H690   1.084       .  S
C674        C675   1.404       .  A
C675        C685   1.403       .  A
C675        C676   1.410       .  A
C676        C682   1.412       .  A
C676        C677   1.411       .  A
C677        C679   1.410       .  A
C677        C678   1.412       .  A
C678        C686   1.404       .  A
C679        C688   1.401       .  A
C679        C680   1.403       .  A
C680        H691   1.084       .  S
C680        C681   1.397       .  A
C681        H692   1.084       .  S
C681        C682   1.403       .  A
C682        C683   1.401       .  A
C683        H693   1.084       .  S
C683        C684   1.406       .  A
C684        C685   1.410       .  A
C685        H694   1.084       .  S
C686        H695   1.084       .  S
C686        C687   1.409       .  A
C687        C688   1.408       .  A
C688        H696   1.084       .  S
C697        H713   1.083       .  S
C697        C698   1.399       .  A
C697        C702   1.404       .  A
C698        H714   1.084       .  S
C698        C699   1.403       .  A
C699        C709   1.405       .  A
C699        C700   1.412       .  A
C700        C706   1.410       .  A
C700        C701   1.412       .  A
C701        C703   1.412       .  A
C701        C702   1.410       .  A
C702        C710   1.403       .  A
C703        C712   1.403       .  A
C703        C704   1.403       .  A
C704        H715   1.084       .  S
C704        C705   1.398       .  A
C705        H716   1.083       .  S
C705        C706   1.404       .  A
C706        C707   1.401       .  A
C707        H717   1.084       .  S
C707        C708   1.409       .  A
C708        C709   1.408       .  A
C709        H718   1.084       .  S
C710        H719   1.084       .  S
C710        C711   1.409       .  A
C711        C712   1.408       .  A
C712        H720   1.084       .  S
C721        H737   1.084       .  S
C721        C722   1.397       .  A
C721        C726   1.403       .  A
C722        H738   1.084       .  S
C722        C723   1.402   1_565  A
C723        C733   1.402       .  A
C723        C724   1.413       .  A
C724        C730   1.409       .  A
C724        C725   1.410   1_545  A
C725        C727   1.414       .  A
C725        C726   1.408       .  A
C726        C734   1.396       .  A
C727        C736   1.406       .  A
C727        C728   1.403   1_565  A
C728        H739   1.083       .  S
C728        C729   1.399       .  A
C729        H740   1.084       .  S
C729        C730   1.405       .  A
C730        C731   1.401       .  A
C731        H741   1.084       .  S
C731        C732   1.411       .  A
C732        C733   1.405       .  A
C733        H742   1.084       .  S
C734        H743   1.084       .  S
C734        C735   1.410       .  A
C735        C736   1.406       .  A
C736        H744   1.084       .  S
C745        H761   1.084       .  S
C745        C746   1.399       .  A
C745        C750   1.404       .  A
C746        H762   1.084       .  S
C746        C747   1.404   1_565  A
C747        C757   1.405       .  A
C747        C748   1.412       .  A
C748        C754   1.410       .  A
C748        C749   1.413   1_544  A
C749        C751   1.413       .  A
C749        C750   1.410   1_556  A
C750        C758   1.402   1_554  A
C751        C760   1.407       .  A
C751        C752   1.403   1_565  A
C752        H763   1.083       .  S
C752        C753   1.400       .  A
C753        H764   1.084       .  S
C753        C754   1.404   1_556  A
C754        C755   1.404       .  A
C755        H765   1.084       .  S
C755        C756   1.410       .  A
C756        C757   1.408       .  A
C757        H766   1.084       .  S
C758        H767   1.085   1_556  S
C758        C759   1.408       .  A
C759        C760   1.406       .  A
C760        H768   1.084       .  S
C769        H785   1.083       .  S
C769        C770   1.400       .  A
C769        C774   1.405       .  A
C770        H786   1.084       .  S
C770        C771   1.403       .  A
C771        C781   1.409       .  A
C771        C772   1.415       .  A
C772        C778   1.408       .  A
C772        C773   1.414       .  A
C773        C775   1.416       .  A
C773        C774   1.408       .  A
C774        C782   1.401       .  A
C775        C784   1.409       .  A
C775        C776   1.403       .  A
C776        H787   1.084       .  S
C776        C777   1.400       .  A
C777        H788   1.083       .  S
C777        C778   1.405       .  A
C778        C779   1.401       .  A
C779        H789   1.084       .  S
C779        C780   1.410       .  A
C780        C781   1.405       .  A
C781        H790   1.084       .  S
C782        H791   1.084       .  S
C782        C783   1.411       .  A
C783        C784   1.405       .  A
C784        H792   1.084       .  S
C793        H809   1.083       .  S
C793        C794   1.397       .  A
C793        C798   1.403       .  A
C794        H810   1.084       .  S
C794        C795   1.403       .  A
C795        C805   1.401       .  A
C795        C796   1.412       .  A
C796        C802   1.412       .  A
C796        C797   1.411       .  A
C797        C799   1.413       .  A
C797        C798   1.411       .  A
C798        C806   1.399       .  A
C799        C808   1.405       .  A
C799        C800   1.404       .  A
C800        H811   1.084       .  S
C800        C801   1.400       .  A
C801        H812   1.083       .  S
C801        C802   1.404       .  A
C802        C803   1.404       .  A
C803        H813   1.084       .  S
C803        C804   1.405       .  A
C804        C805   1.402       .  A
C805        H814   1.085       .  S
C806        H815   1.084       .  S
C806        C807   1.404       .  A
C807        C808   1.406       .  A
C808        H816   1.085       .  S
C817        H833   1.084       .  S
C817        C818   1.401       .  A
C817        C822   1.405       .  A
C818        H834   1.084       .  S
C818        C819   1.404       .  A
C819        C829   1.406       .  A
C819        C820   1.411       .  A
C820        C826   1.411       .  A
C820        C821   1.414       .  A
C821        C823   1.411       .  A
C821        C822   1.411       .  A
C822        C830   1.406       .  A
C823        C832   1.404       .  A
C823        C824   1.403       .  A
C824        H835   1.084       .  S
C824        C825   1.399       .  A
C825        H836   1.084       .  S
C825        C826   1.403       .  A
C826        C827   1.403       .  A
C827        H837   1.084       .  S
C827        C828   1.408       .  A
C828        C829   1.410       .  A
C829        H838   1.084       .  S
C830        H839   1.084       .  S
C830        C831   1.411       .  A
C831        C832   1.408       .  A
C832        H840   1.084       .  S
C841        H857   1.084       .  S
C841        C842   1.398       .  A
C841        C846   1.403       .  A
C842        H858   1.084       .  S
C842        C843   1.403       .  A
C843        C853   1.403       .  A
C843        C844   1.411       .  A
C844        C850   1.411       .  A
C844        C845   1.413       .  A
C845        C847   1.412       .  A
C845        C846   1.410       .  A
C846        C854   1.401   1_554  A
C847        C856   1.406   1_554  A
C847        C848   1.404       .  A
C848        H859   1.084       .  S
C848        C849   1.401       .  A
C849        H860   1.083       .  S
C849        C850   1.404       .  A
C850        C851   1.405       .  A
C851        H861   1.084       .  S
C851        C852   1.410       .  A
C852        C853   1.408       .  A
C853        H862   1.084       .  S
C854        H863   1.084       .  S
C854        C855   1.408       .  A
C855        C856   1.408       .  A
C856        H864   1.084       .  S
C865        H881   1.084       .  S
C865        C866   1.397       .  A
C865        C870   1.402       .  A
C866        H882   1.084       .  S
C866        C867   1.403       .  A
C867        C877   1.397       .  A
C867        C868   1.408       .  A
C868        C874   1.415       .  A
C868        C869   1.414       .  A
C869        C871   1.409       .  A
C869        C870   1.413       .  A
C870        C878   1.404       .  A
C871        C880   1.407       .  A
C871        C872   1.406       .  A
C872        H883   1.083       .  S
C872        C873   1.403       .  A
C873        H884   1.083       .  S
C873        C874   1.404       .  A
C874        C875   1.413       .  A
C875        H885   1.084       .  S
C875        C876   1.406       .  A
C876        C877   1.409       .  A
C877        H886   1.085       .  S
C878        H887   1.084       .  S
C878        C879   1.407       .  A
C879        C880   1.412       .  A
C880        H888   1.084       .  S
C889        H905   1.084       .  S
C889        C890   1.398       .  A
C889        C894   1.403       .  A
C890        H906   1.083       .  S
C890        C891   1.403   1_655  A
C891        C901   1.404       .  A
C891        C892   1.412       .  A
C892        C898   1.411       .  A
C892        C893   1.413   1_455  A
C893        C895   1.412       .  A
C893        C894   1.411       .  A
C894        C902   1.402       .  A
C895        C904   1.405       .  A
C895        C896   1.404   1_655  A
C896        H907   1.084       .  S
C896        C897   1.400       .  A
C897        H908   1.084       .  S
C897        C898   1.404       .  A
C898        C899   1.404       .  A
C899        H909   1.084       .  S
C899        C900   1.410       .  A
C900        C901   1.407       .  A
C901        H910   1.084       .  S
C902        H911   1.084       .  S
C902        C903   1.408       .  A
C903        C904   1.409       .  A
C904        H912   1.084       .  S
C913        H929   1.084       .  S
C913        C914   1.400       .  A
C913        C918   1.403   1_455  A
C914        H930   1.084       .  S
C914        C915   1.405       .  A
C915        C925   1.402       .  A
C915        C916   1.409       .  A
C916        C922   1.413       .  A
C916        C917   1.414   1_455  A
C917        C919   1.409       .  A
C917        C918   1.413       .  A
C918        C926   1.407       .  A
C919        C928   1.402       .  A
C919        C920   1.404       .  A
C920        H931   1.084       .  S
C920        C921   1.400       .  A
C921        H932   1.083       .  S
C921        C922   1.403   1_655  A
C922        C923   1.407       .  A
C923        H933   1.084       .  S
C923        C924   1.407       .  A
C924        C925   1.412       .  A
C925        H934   1.084       .  S
C926        H935   1.084       .  S
C926        C927   1.407       .  A
C927        C928   1.410       .  A
C928        H936   1.084       .  S
C937        H953   1.084       .  S
C937        C938   1.398       .  A
C937        C942   1.404       .  A
C938        H954   1.083       .  S
C938        C939   1.402       .  A
C939        C949   1.405       .  A
C939        C940   1.415       .  A
C940        C946   1.408   1_556  A
C940        C941   1.411       .  A
C941        C943   1.415       .  A
C941        C942   1.407       .  A
C942        C950   1.397       .  A
C943        C952   1.407       .  A
C943        C944   1.403   1_556  A
C944        H955   1.083       .  S
C944        C945   1.399       .  A
C945        H956   1.084       .  S
C945        C946   1.404       .  A
C946        C947   1.399       .  A
C947        H957   1.085       .  S
C947        C948   1.410   1_554  A
C948        C949   1.404       .  A
C949        H958   1.084       .  S
C950        H959   1.084       .  S
C950        C951   1.412       .  A
C951        C952   1.405       .  A
C952        H960   1.084       .  S
C961        H977   1.083       .  S
C961        C962   1.400       .  A
C961        C966   1.403   1_655  A
C962        H978   1.084       .  S
C962        C963   1.405       .  A
C963        C973   1.402       .  A
C963        C964   1.409       .  A
C964        C970   1.414       .  A
C964        C965   1.414   1_655  A
C965        C967   1.408       .  A
C965        C966   1.414       .  A
C966        C974   1.409       .  A
C967        C976   1.400       .  A
C967        C968   1.405       .  A
C968        H979   1.085       .  S
C968        C969   1.399       .  A
C969        H980   1.083       .  S
C969        C970   1.403   1_455  A
C970        C971   1.406       .  A
C971        H981   1.083       .  S
C971        C972   1.407       .  A
C972        C973   1.412       .  A
C973        H982   1.085       .  S
C974        H983   1.083       .  S
C974        C975   1.407       .  A
C975        C976   1.412       .  A
C976        H984   1.085       .  S
C985       H1001   1.084       .  S
C985        C986   1.398       .  A
C985        C990   1.403       .  A
C986       H1002   1.084       .  S
C986        C987   1.403       .  A
C987        C997   1.403       .  A
C987        C988   1.411       .  A
C988        C994   1.411       .  A
C988        C989   1.415       .  A
C989        C991   1.412       .  A
C989        C990   1.410       .  A
C990        C998   1.402       .  A
C991       C1000   1.410       .  A
C991        C992   1.405       .  A
C992       H1003   1.084       .  S
C992        C993   1.403       .  A
C993       H1004   1.083       .  S
C993        C994   1.406       .  A
C994        C995   1.410       .  A
C995       H1005   1.084       .  S
C995        C996   1.412       .  A
C996        C997   1.408       .  A
C997       H1006   1.084       .  S
C998       H1007   1.084       .  S
C998        C999   1.409       .  A
C999       C1000   1.411       .  A
C1000      H1008   1.084       .  S
C1009      H1025   1.083       .  S
C1009      C1010   1.400       .  A
C1009      C1014   1.404       .  A
C1010      H1026   1.084       .  S
C1010      C1011   1.404       .  A
C1011      C1021   1.405       .  A
C1011      C1012   1.412       .  A
C1012      C1018   1.411       .  A
C1012      C1013   1.411       .  A
C1013      C1015   1.411       .  A
C1013      C1014   1.412       .  A
C1014      C1022   1.405       .  A
C1015      C1024   1.399       .  A
C1015      C1016   1.403       .  A
C1016      H1027   1.084       .  S
C1016      C1017   1.397       .  A
C1017      H1028   1.083       .  S
C1017      C1018   1.403       .  A
C1018      C1019   1.399       .  A
C1019      H1029   1.084       .  S
C1019      C1020   1.407       .  A
C1020      C1021   1.408       .  A
C1021      H1030   1.084       .  S
C1022      H1031   1.084       .  S
C1022      C1023   1.407       .  A
C1023      C1024   1.408       .  A
C1024      H1032   1.085       .  S
C1033      H1049   1.084   1_556  S
C1033      C1034   1.399       .  A
C1033      C1038   1.404   1_655  A
C1034      H1050   1.084       .  S
C1034      C1035   1.404       .  A
C1035      C1045   1.403       .  A
C1035      C1036   1.410       .  A
C1036      C1042   1.413       .  A
C1036      C1037   1.414   1_655  A
C1037      C1039   1.410       .  A
C1037      C1038   1.413       .  A
C1038      C1046   1.405       .  A
C1039      C1048   1.404       .  A
C1039      C1040   1.405       .  A
C1040      H1051   1.083       .  S
C1040      C1041   1.400       .  A
C1041      H1052   1.084       .  S
C1041      C1042   1.404   1_455  A
C1042      C1043   1.406       .  A
C1043      H1053   1.084       .  S
C1043      C1044   1.407       .  A
C1044      C1045   1.408       .  A
C1045      H1054   1.084       .  S
C1046      H1055   1.084   1_556  S
C1046      C1047   1.407       .  A
C1047      C1048   1.410       .  A
C1048      H1056   1.084       .  S
C1057      H1073   1.084       .  S
C1057      C1058   1.394       .  A
C1057      C1062   1.401       .  A
C1058      H1074   1.084       .  S
C1058      C1059   1.402       .  A
C1059      C1069   1.394       .  A
C1059      C1060   1.409       .  A
C1060      C1066   1.414       .  A
C1060      C1061   1.412       .  A
C1061      C1063   1.410       .  A
C1061      C1062   1.412       .  A
C1062      C1070   1.397       .  A
C1063      C1072   1.409       .  A
C1063      C1064   1.406       .  A
C1064      H1075   1.083       .  S
C1064      C1065   1.404       .  A
C1065      H1076   1.083       .  S
C1065      C1066   1.406       .  A
C1066      C1067   1.413       .  A
C1067      H1077   1.084       .  S
C1067      C1068   1.409       .  A
C1068      C1069   1.405       .  A
C1069      H1078   1.085       .  S
C1070      H1079   1.084       .  S
C1070      C1071   1.403       .  A
C1071      C1072   1.413       .  A
C1072      H1080   1.084       .  S
C1081      H1097   1.084       .  S
C1081      C1082   1.397       .  A
C1081      C1086   1.403       .  A
C1082      H1098   1.083       .  S
C1082      C1083   1.402       .  A
C1083      C1093   1.403       .  A
C1083      C1084   1.413       .  A
C1084      C1090   1.409       .  A
C1084      C1085   1.412       .  A
C1085      C1087   1.416       .  A
C1085      C1086   1.408       .  A
C1086      C1094   1.396       .  A
C1087      C1096   1.410       .  A
C1087      C1088   1.403       .  A
C1088      H1099   1.083       .  S
C1088      C1089   1.401       .  A
C1089      H1100   1.084       .  S
C1089      C1090   1.405       .  A
C1090      C1091   1.403       .  A
C1091      H1101   1.084       .  S
C1091      C1092   1.412       .  A
C1092      C1093   1.405       .  A
C1093      H1102   1.084       .  S
C1094      H1103   1.086       .  S
C1094      C1095   1.407       .  A
C1095      C1096   1.403       .  A
C1096      H1104   1.084       .  S
C1105      H1121   1.084       .  S
C1105      C1106   1.400       .  A
C1105      C1110   1.404       .  A
C1106      H1122   1.083       .  S
C1106      C1107   1.403       .  A
C1107      C1117   1.407       .  A
C1107      C1108   1.414       .  A
C1108      C1114   1.408       .  A
C1108      C1109   1.411       .  A
C1109      C1111   1.413       .  A
C1109      C1110   1.409       .  A
C1110      C1118   1.402       .  A
C1111      C1120   1.403       .  A
C1111      C1112   1.403       .  A
C1112      H1123   1.084       .  S
C1112      C1113   1.398       .  A
C1113      H1124   1.084       .  S
C1113      C1114   1.404       .  A
C1114      C1115   1.398       .  A
C1115      H1125   1.085       .  S
C1115      C1116   1.410       .  A
C1116      C1117   1.404       .  A
C1117      H1126   1.084       .  S
C1118      H1127   1.084       .  S
C1118      C1119   1.408       .  A
C1119      C1120   1.406       .  A
C1120      H1128   1.084       .  S
C1129      H1145   1.084       .  S
C1129      C1130   1.401       .  A
C1129      C1134   1.405       .  A
C1130      H1146   1.083       .  S
C1130      C1131   1.404       .  A
C1131      C1141   1.409       .  A
C1131      C1132   1.414       .  A
C1132      C1138   1.409       .  A
C1132      C1133   1.413       .  A
C1133      C1135   1.414       .  A
C1133      C1134   1.410       .  A
C1134      C1142   1.403       .  A
C1135      C1144   1.406       .  A
C1135      C1136   1.403       .  A
C1136      H1147   1.083       .  S
C1136      C1137   1.399       .  A
C1137      H1148   1.084       .  S
C1137      C1138   1.404       .  A
C1138      C1139   1.400       .  A
C1139      H1149   1.085       .  S
C1139      C1140   1.407       .  A
C1140      C1141   1.407       .  A
C1141      H1150   1.084       .  S
C1142      H1151   1.085       .  S
C1142      C1143   1.408       .  A
C1143      C1144   1.404       .  A
C1144      H1152   1.084       .  S
C1153      H1169   1.083       .  S
C1153      C1154   1.398       .  A
C1153      C1158   1.403       .  A
C1154      H1170   1.084       .  S
C1154      C1155   1.403       .  A
C1155      C1165   1.400   1_556  A
C1155      C1156   1.411       .  A
C1156      C1162   1.412       .  A
C1156      C1157   1.411       .  A
C1157      C1159   1.411       .  A
C1157      C1158   1.412       .  A
C1158      C1166   1.402       .  A
C1159      C1168   1.401       .  A
C1159      C1160   1.404       .  A
C1160      H1171   1.084       .  S
C1160      C1161   1.399       .  A
C1161      H1172   1.084       .  S
C1161      C1162   1.403       .  A
C1162      C1163   1.404   1_556  A
C1163      H1173   1.084       .  S
C1163      C1164   1.406       .  A
C1164      C1165   1.407       .  A
C1165      H1174   1.084       .  S
C1166      H1175   1.084       .  S
C1166      C1167   1.406       .  A
C1167      C1168   1.407       .  A
C1168      H1176   1.084       .  S
C1177      H1193   1.083       .  S
C1177      C1178   1.400       .  A
C1177      C1182   1.404       .  A
C1178      H1194   1.084       .  S
C1178      C1179   1.404       .  A
C1179      C1189   1.404       .  A
C1179      C1180   1.410       .  A
C1180      C1186   1.413       .  A
C1180      C1181   1.416       .  A
C1181      C1183   1.410       .  A
C1181      C1182   1.412       .  A
C1182      C1190   1.408       .  A
C1183      C1192   1.406       .  A
C1183      C1184   1.405       .  A
C1184      H1195   1.084       .  S
C1184      C1185   1.401       .  A
C1185      H1196   1.083       .  S
C1185      C1186   1.404       .  A
C1186      C1187   1.408       .  A
C1187      H1197   1.084       .  S
C1187      C1188   1.408       .  A
C1188      C1189   1.410       .  A
C1189      H1198   1.084       .  S
C1190      H1199   1.084       .  S
C1190      C1191   1.409       .  A
C1191      C1192   1.411       .  A
C1192      H1200   1.084       .  S
C1201      H1217   1.084       .  S
C1201      C1202   1.397       .  A
C1201      C1206   1.403       .  A
C1202      H1218   1.084       .  S
C1202      C1203   1.402       .  A
C1203      C1213   1.402       .  A
C1203      C1204   1.413       .  A
C1204      C1210   1.409       .  A
C1204      C1205   1.410       .  A
C1205      C1207   1.414       .  A
C1205      C1206   1.409       .  A
C1206      C1214   1.397       .  A
C1207      C1216   1.406       .  A
C1207      C1208   1.403   1_554  A
C1208      H1219   1.084       .  S
C1208      C1209   1.400       .  A
C1209      H1220   1.084       .  S
C1209      C1210   1.405   1_556  A
C1210      C1211   1.401   1_554  A
C1211      H1221   1.084       .  S
C1211      C1212   1.411   1_556  A
C1212      C1213   1.405       .  A
C1213      H1222   1.084       .  S
C1214      H1223   1.084       .  S
C1214      C1215   1.408       .  A
C1215      C1216   1.406       .  A
C1216      H1224   1.084       .  S
C1225      H1241   1.083       .  S
C1225      C1226   1.403       .  A
C1225      C1230   1.405       .  A
C1226      H1242   1.084       .  S
C1226      C1227   1.406       .  A
C1227      C1237   1.406       .  A
C1227      C1228   1.410       .  A
C1228      C1234   1.413       .  A
C1228      C1229   1.411       .  A
C1229      C1231   1.407       .  A
C1229      C1230   1.415       .  A
C1230      C1238   1.412       .  A
C1231      C1240   1.392       .  A
C1231      C1232   1.402       .  A
C1232      H1243   1.084       .  S
C1232      C1233   1.394       .  A
C1233      H1244   1.083       .  S
C1233      C1234   1.400       .  A
C1234      C1235   1.398       .  A
C1235      H1245   1.084       .  S
C1235      C1236   1.402       .  A
C1236      C1237   1.411       .  A
C1237      H1246   1.084       .  S
C1238      H1247   1.084       .  S
C1238      C1239   1.407       .  A
C1239      C1240   1.408       .  A
C1240      H1248   1.085       .  S
C1249      H1265   1.083       .  S
C1249      C1250   1.401       .  A
C1249      C1254   1.405       .  A
C1250      H1266   1.084       .  S
C1250      C1251   1.404       .  A
C1251      C1261   1.409       .  A
C1251      C1252   1.413       .  A
C1252      C1258   1.409       .  A
C1252      C1253   1.416       .  A
C1253      C1255   1.414       .  A
C1253      C1254   1.410       .  A
C1254      C1262   1.405       .  A
C1255      C1264   1.408       .  A
C1255      C1256   1.403       .  A
C1256      H1267   1.084       .  S
C1256      C1257   1.400       .  A
C1257      H1268   1.083       .  S
C1257      C1258   1.405       .  A
C1258      C1259   1.404       .  A
C1259      H1269   1.084       .  S
C1259      C1260   1.412       .  A
C1260      C1261   1.409       .  A
C1261      H1270   1.084       .  S
C1262      H1271   1.084       .  S
C1262      C1263   1.411       .  A
C1263      C1264   1.406       .  A
C1264      H1272   1.084       .  S
C1273      H1289   1.084       .  S
C1273      C1274   1.401       .  A
C1273      C1278   1.405       .  A
C1274      H1290   1.084       .  S
C1274      C1275   1.404       .  A
C1275      C1285   1.408       .  A
C1275      C1276   1.413       .  A
C1276      C1282   1.409       .  A
C1276      C1277   1.413       .  A
C1277      C1279   1.413       .  A
C1277      C1278   1.410       .  A
C1278      C1286   1.404       .  A
C1279      C1288   1.403       .  A
C1279      C1280   1.402       .  A
C1280      H1291   1.084       .  S
C1280      C1281   1.397       .  A
C1281      H1292   1.084       .  S
C1281      C1282   1.403       .  A
C1282      C1283   1.399       .  A
C1283      H1293   1.084       .  S
C1283      C1284   1.409       .  A
C1284      C1285   1.409       .  A
C1285      H1294   1.084       .  S
C1286      H1295   1.084       .  S
C1286      C1287   1.411       .  A
C1287      C1288   1.404       .  A
C1288      H1296   1.084   1_554  S
C1297      H1313   1.084       .  S
C1297      C1298   1.400       .  A
C1297      C1302   1.405       .  A
C1298      H1314   1.083       .  S
C1298      C1299   1.403       .  A
C1299      C1309   1.407       .  A
C1299      C1300   1.415       .  A
C1300      C1306   1.408       .  A
C1300      C1301   1.412       .  A
C1301      C1303   1.414       .  A
C1301      C1302   1.408       .  A
C1302      C1310   1.401       .  A
C1303      C1312   1.406       .  A
C1303      C1304   1.403       .  A
C1304      H1315   1.084       .  S
C1304      C1305   1.398       .  A
C1305      H1316   1.084       .  S
C1305      C1306   1.404       .  A
C1306      C1307   1.399       .  A
C1307      H1317   1.085       .  S
C1307      C1308   1.409       .  A
C1308      C1309   1.404       .  A
C1309      H1318   1.084       .  S
C1310      H1319   1.084       .  S
C1310      C1311   1.411       .  A
C1311      C1312   1.406       .  A
C1312      H1320   1.084       .  S
C1321      H1337   1.083       .  S
C1321      C1322   1.402       .  A
C1321      C1326   1.404       .  A
C1322      H1338   1.084       .  S
C1322      C1323   1.406       .  A
C1323      C1333   1.405       .  A
C1323      C1324   1.409       .  A
C1324      C1330   1.414       .  A
C1324      C1325   1.413       .  A
C1325      C1327   1.408       .  A
C1325      C1326   1.414       .  A
C1326      C1334   1.411       .  A
C1327      C1336   1.397       .  A
C1327      C1328   1.403       .  A
C1328      H1339   1.084       .  S
C1328      C1329   1.396       .  A
C1329      H1340   1.083       .  S
C1329      C1330   1.402       .  A
C1330      C1331   1.403       .  A
C1331      H1341   1.084       .  S
C1331      C1332   1.404       .  A
C1332      C1333   1.411       .  A
C1333      H1342   1.084       .  S
C1334      H1343   1.084       .  S
C1334      C1335   1.408       .  A
C1335      C1336   1.409       .  A
C1336      H1344   1.085       .  S
C1345      H1361   1.084       .  S
C1345      C1346   1.402       .  A
C1345      C1350   1.405       .  A
C1346      H1362   1.083       .  S
C1346      C1347   1.405       .  A
C1347      C1357   1.407       .  A
C1347      C1348   1.411       .  A
C1348      C1354   1.411       .  A
C1348      C1349   1.414       .  A
C1349      C1351   1.411       .  A
C1349      C1350   1.411       .  A
C1350      C1358   1.407       .  A
C1351      C1360   1.403       .  A
C1351      C1352   1.403       .  A
C1352      H1363   1.084       .  S
C1352      C1353   1.398       .  A
C1353      H1364   1.084       .  S
C1353      C1354   1.403       .  A
C1354      C1355   1.403       .  A
C1355      H1365   1.084       .  S
C1355      C1356   1.408       .  A
C1356      C1357   1.411       .  A
C1357      H1366   1.084       .  S
C1358      H1367   1.084       .  S
C1358      C1359   1.410       .  A
C1359      C1360   1.409       .  A
C1360      H1368   1.084       .  S
C1369      H1385   1.084       .  S
C1369      C1370   1.401       .  A
C1369      C1374   1.404       .  A
C1370      H1386   1.084       .  S
C1370      C1371   1.405       .  A
C1371      C1381   1.406       .  A
C1371      C1372   1.411       .  A
C1372      C1378   1.411       .  A
C1372      C1373   1.414       .  A
C1373      C1375   1.411       .  A
C1373      C1374   1.411       .  A
C1374      C1382   1.406       .  A
C1375      C1384   1.403       .  A
C1375      C1376   1.403       .  A
C1376      H1387   1.084       .  S
C1376      C1377   1.399       .  A
C1377      H1388   1.084       .  S
C1377      C1378   1.403       .  A
C1378      C1379   1.403       .  A
C1379      H1389   1.084       .  S
C1379      C1380   1.408       .  A
C1380      C1381   1.410       .  A
C1381      H1390   1.084       .  S
C1382      H1391   1.084       .  S
C1382      C1383   1.410       .  A
C1383      C1384   1.408       .  A
C1384      H1392   1.084       .  S
C1393      H1409   1.083       .  S
C1393      C1394   1.398       .  A
C1393      C1398   1.403       .  A
C1394      H1410   1.084       .  S
C1394      C1395   1.404       .  A
C1395      C1405   1.401       .  A
C1395      C1396   1.410       .  A
C1396      C1402   1.412       .  A
C1396      C1397   1.414       .  A
C1397      C1399   1.411       .  A
C1397      C1398   1.412       .  A
C1398      C1406   1.403       .  A
C1399      C1408   1.406       .  A
C1399      C1400   1.405       .  A
C1400      H1411   1.084       .  S
C1400      C1401   1.402       .  A
C1401      H1412   1.083       .  S
C1401      C1402   1.405       .  A
C1402      C1403   1.409       .  A
C1403      H1413   1.084       .  S
C1403      C1404   1.410       .  A
C1404      C1405   1.410       .  A
C1405      H1414   1.084       .  S
C1406      H1415   1.084       .  S
C1406      C1407   1.407       .  A
C1407      C1408   1.411       .  A
C1408      H1416   1.084       .  S
C1417      H1433   1.084       .  S
C1417      C1418   1.401       .  A
C1417      C1422   1.405       .  A
C1418      H1434   1.083       .  S
C1418      C1419   1.404       .  A
C1419      C1429   1.407       .  A
C1419      C1420   1.412       .  A
C1420      C1426   1.410       .  A
C1420      C1421   1.413       .  A
C1421      C1423   1.412       .  A
C1421      C1422   1.410       .  A
C1422      C1430   1.404       .  A
C1423      C1432   1.404       .  A
C1423      C1424   1.403       .  A
C1424      H1435   1.084       .  S
C1424      C1425   1.398       .  A
C1425      H1436   1.084       .  S
C1425      C1426   1.403       .  A
C1426      C1427   1.402       .  A
C1427      H1437   1.084       .  S
C1427      C1428   1.409       .  A
C1428      C1429   1.410       .  A
C1429      H1438   1.084       .  S
C1430      H1439   1.084       .  S
C1430      C1431   1.410       .  A
C1431      C1432   1.406       .  A
C1432      H1440   1.084       .  S
