geometry optimzed in LAMMPS
_audit_creation_date              2020-12-01 
_audit_creation_method            'lammps2cif' 
_symmetry_space_group_name_H-M    'P1' 
_symmetry_Int_Tables_number       1 
_symmetry_cell_setting            triclinic 
loop_ 
_symmetry_equiv_pos_as_xyz 
  x,y,z 
_cell_length_a                    57.31385834 
_cell_length_b                    57.5751405818747 
_cell_length_c                    42.01221595505217 
_cell_angle_alpha                 90.00673098827993 
_cell_angle_beta                  90.09188733932282 
_cell_angle_gamma                 120.64033942366049 
loop_ 
_atom_site_label 
_atom_site_type_symbol 
_atom_site_fract_x 
_atom_site_fract_y 
_atom_site_fract_z 
_atom_site_charge 
O1          O  0.57843994  0.67395622  0.29084621    -0.82300
C2          C  0.48717365  0.61462863  0.20931240     0.97000
O3          O  0.50002245  0.60615401  0.22506136    -0.71400
O4          O  0.55180843  0.63078180  0.21212610    -0.75000
Al5        Al  0.53216476  0.62335341  0.25019563     1.49000
C6          C  0.57598545  0.64959017  0.20893241     0.92300
O7          O  0.56338055  0.69961167  0.21411954    -0.81200
O8          O  0.51723759  0.68107075  0.28843498    -0.74800
Al9        Al  0.56920537  0.68529181  0.25234746     1.90100
O10         O  0.52193092  0.69010336  0.22404064    -0.73900
O11         O  0.48583979  0.62923204  0.27925150    -0.73700
O12         O  0.49155161  0.63809091  0.21410004    -0.79400
O13         O  0.51228091  0.61252739  0.28802259    -0.77600
O14         O  0.53592190  0.65605074  0.25135590    -1.13700
O15         O  0.56317646  0.63235267  0.27538735    -0.72900
C16         C  0.57734086  0.65160448  0.29415689     0.97800
C17         C  0.54335794  0.70240331  0.20773427     0.94200
Al18       Al  0.50667778  0.65934979  0.25145498     1.55600
O19         O  0.58595780  0.67035697  0.22636285    -0.77500
C20         C  0.49166783  0.61396705  0.29463609     0.98400
C21         C  0.53942771  0.70248356  0.29330468     0.93200
O22         O  0.56038373  0.70712735  0.27826430    -0.82900
O23         O  0.30541522  0.39822572  0.46093023    -0.82300
C24         C  0.35945888  0.48700135  0.04279951     0.97000
O25         O  0.36952587  0.47643820  0.02545793    -0.71400
O26         O  0.34714730  0.42497520  0.03894016    -0.75000
Al27       Al  0.35509940  0.44449638  0.50240950     1.49000
C28         C  0.32838648  0.40115407  0.04438722     0.92300
O29         O  0.27594831  0.41021717  0.03721134    -0.81200
O30         O  0.29993389  0.46007965  0.46108369    -0.74800
Al31       Al  0.29118858  0.40514675  0.99948797     1.90100
O32         O  0.28313581  0.45058323  0.02629135    -0.73900
O33         O  0.35082787  0.49125628  0.47460190    -0.73700
O34         O  0.33509216  0.48067004  0.03935438    -0.79400
O35         O  0.36635640  0.46414214  0.46414567    -0.77600
O36         O  0.32223258  0.44053175  0.50013800    -1.13700
O37         O  0.34680567  0.41311650  0.47801853    -0.72900
C38         C  0.32778665  0.39906612  0.45884355     0.97800
C39         C  0.27103972  0.42891615  0.04197939     0.94200
Al40       Al  0.31891430  0.46957968  0.49972815     1.55600
O41         O  0.30738496  0.38996530  0.02686688    -0.77500
C42         C  0.36576089  0.48533054  0.45856784     0.98400
C43         C  0.27823514  0.43849805  0.45529395     0.93200
O44         O  0.27236292  0.41713766  0.47034969    -0.82900
O45         O  0.08235759  0.40384050  0.28878878    -0.82300
C46         C  0.11862829  0.49456436  0.20601526     0.97000
O47         O  0.09781248  0.48373692  0.22335266    -0.71400
O48         O  0.06817794  0.43226299  0.21142984    -0.75000
Al49       Al  0.08162803  0.45196114  0.24916302     1.49000
C50         C  0.06320999  0.40861557  0.20637800     0.92300
O51         O  0.12516756  0.41784391  0.21447899    -0.81200
O52         O  0.15439171  0.46588113  0.28590080    -0.74800
Al53       Al  0.10420106  0.41332132  0.25141426     1.90100
O54         O  0.15815941  0.45925020  0.22203704    -0.73900
O55         O  0.13561139  0.49820066  0.27428535    -0.73700
O56         O  0.13692974  0.48890575  0.20996199    -0.79400
O57         O  0.09266804  0.47248591  0.28699931    -0.77600
O58         O  0.10982700  0.44688059  0.24973382    -1.13700
O59         O  0.05803497  0.42143320  0.27450785    -0.72900
C60         C  0.06154314  0.40572085  0.29203594     0.97800
C61         C  0.14837002  0.43710761  0.20736730     0.94200
Al62       Al  0.14335432  0.47551770  0.24825232     1.55600
O63         O  0.07314696  0.39788652  0.22380577    -0.77500
C64         C  0.11539280  0.49363258  0.29106971     0.98400
C65         C  0.15144774  0.44326759  0.29289091     0.93200
O66         O  0.13402252  0.42197976  0.27899634    -0.82900
O67         O  0.57509994  0.89749564  0.46405092    -0.82300
C68         C  0.48625886  0.85651717  0.04778394     0.97000
O69         O  0.49812098  0.87879734  0.03342379    -0.71400
O70         O  0.54986462  0.90979171  0.04155311    -0.75000
Al71       Al  0.52795411  0.89665966  0.50810196     1.49000
C72         C  0.57402958  0.91557069  0.04486479     0.92300
O73         O  0.56398044  0.85320485  0.03523424    -0.81200
O74         O  0.51524717  0.82533090  0.46564255    -0.74800
Al75       Al  0.56794536  0.87481851  0.99896102     1.90100
O76         O  0.52270786  0.81963734  0.02618159    -0.73900
O77         O  0.48238264  0.84295328  0.47763420    -0.73700
O78         O  0.49022147  0.83777745  0.03957232    -0.79400
O79         O  0.50560000  0.88706144  0.47217918    -0.77600
O80         O  0.53327054  0.86870520  0.50410198    -1.13700
O81         O  0.55704619  0.92082671  0.48075680    -0.72900
C82         C  0.57166579  0.91736428  0.46116607     0.97800
C83         C  0.54494583  0.82951612  0.04103199     0.94200
Al84       Al  0.50483123  0.83488926  0.50376816     1.55600
O85         O  0.58387107  0.90529470  0.02683935    -0.77500
C86         C  0.48612754  0.86429121  0.46438428     0.98400
C87         C  0.53796872  0.82879156  0.45793416     0.93200
O88         O  0.55921615  0.84626916  0.47177315    -0.82900
O89         O  0.89798495  0.31250095  0.46252008    -0.82300
C90         C  0.85725429  0.36012875  0.04740682     0.97000
O91         O  0.87887838  0.37251705  0.03141276    -0.71400
O92         O  0.91160938  0.35437838  0.04154170    -0.75000
Al93       Al  0.89701691  0.35942620  0.50455558     1.49000
C94         C  0.91837959  0.33689008  0.04495622     0.92300
O95         O  0.85751700  0.28253851  0.03658725    -0.81200
O96         O  0.82749072  0.30071863  0.46256120    -0.74800
Al97       Al  0.87839335  0.30006380  0.99954820     1.90100
O98         O  0.82226437  0.28604477  0.02437743    -0.73900
O99         O  0.84283469  0.35066184  0.47896458    -0.73700
O100        O  0.83974292  0.33614232  0.04049872    -0.79400
O101        O  0.88606184  0.36976740  0.46757946    -0.77600
O102        O  0.86959115  0.32557740  0.50216770    -1.13700
O103        O  0.92120133  0.35474863  0.47764041    -0.72900
C104        C  0.91774553  0.33616619  0.45884865     0.97800
C105        C  0.83284027  0.27520437  0.04033920     0.94200
Al106      Al  0.83557641  0.31896346  0.50217518     1.55600
O107        O  0.90925696  0.31681848  0.02664297    -0.77500
C108        C  0.86328455  0.36749267  0.46329350     0.98400
C109        C  0.83083989  0.28127372  0.45576250     0.93200
O110        O  0.84673678  0.27681211  0.47191432    -0.82900
O111        O  0.67483380  0.07942292  0.28688542    -0.82300
C112        C  0.62270055  0.12010038  0.20874886     0.97000
O113        O  0.61168310  0.09840829  0.22443393    -0.71400
O114        O  0.63192615  0.06826680  0.20961057    -0.75000
Al115      Al  0.62605879  0.08038549  0.24856774     1.49000
C116        C  0.65008132  0.06272907  0.20377046     0.92300
O117        O  0.70351537  0.12342263  0.21310184    -0.81200
O118        O  0.68622266  0.14927433  0.28994447    -0.74800
Al119      Al  0.68760630  0.10185313  0.24988770     1.90100
O120        O  0.69817366  0.15721537  0.22618243    -0.73900
O121        O  0.63559850  0.13326121  0.27812788    -0.73700
O122        O  0.64698971  0.13789748  0.21387521    -0.79400
O123        O  0.61649964  0.08982874  0.28751970    -0.77600
O124        O  0.66003560  0.10798197  0.25018847    -1.13700
O125        O  0.63231700  0.05573553  0.27226005    -0.72900
C126        C  0.65149572  0.05889055  0.29003293     0.97800
C127        C  0.70878315  0.14727953  0.20864921     0.94200
Al128      Al  0.66626734  0.14156091  0.25193939     1.55600
O129        O  0.67071512  0.07146417  0.22153125    -0.77500
C130        C  0.61891035  0.11243182  0.29338790     0.98400
C131        C  0.70668777  0.14702040  0.29430345     0.93200
O132        O  0.71059760  0.13110282  0.27762715    -0.82900
O133        O  0.89488450  0.57975099  0.28586644    -0.82300
C134        C  0.85260382  0.48194171  0.21437747     0.97000
O135        O  0.87473362  0.49463901  0.22924243    -0.71400
O136        O  0.90430322  0.54478256  0.21048867    -0.75000
Al137      Al  0.89299945  0.52861487  0.25066454     1.49000
C138        C  0.91054349  0.56861237  0.20390939     0.92300
O139        O  0.84936277  0.56085514  0.21279317    -0.81200
O140        O  0.82393845  0.51981382  0.29074250    -0.74800
Al141      Al  0.87161264  0.56809373  0.24932604     1.90100
O142        O  0.81573866  0.52100426  0.22656918    -0.73900
O143        O  0.84050317  0.48594379  0.28257307    -0.73700
O144        O  0.83496152  0.48865365  0.21747695    -0.79400
O145        O  0.88420952  0.51191903  0.29083456    -0.77600
O146        O  0.86531364  0.53434860  0.25130452    -1.13700
O147        O  0.91825343  0.56100893  0.27212791    -0.72900
C148        C  0.91591566  0.57805536  0.28846874     0.97800
C149        C  0.82534486  0.54166570  0.20900965     0.94200
Al150      Al  0.83165092  0.50630597  0.25405581     1.55600
O151        O  0.90179142  0.58092173  0.22050647    -0.77500
C152        C  0.86155279  0.49216179  0.29872768     0.98400
C153        C  0.82645104  0.54261644  0.29454607     0.93200
O154        O  0.84268640  0.56233458  0.27743026    -0.82900
O155        O  0.40604768  0.08709497  0.45893050    -0.82300
C156        C  0.49613259  0.12161418  0.04487655     0.97000
O157        O  0.48488917  0.10097141  0.02763710    -0.71400
O158        O  0.43351308  0.07169298  0.03925769    -0.75000
Al159      Al  0.45288447  0.08436820  0.50000284     1.49000
C160        C  0.40934436  0.06567007  0.04325856     0.92300
O161        O  0.41952891  0.12771839  0.03715903    -0.81200
O162        O  0.46782144  0.15742072  0.46397035    -0.74800
Al163      Al  0.41474986  0.10750862  0.99935589     1.90100
O164        O  0.46112819  0.16107888  0.02949175    -0.73900
O165        O  0.50008770  0.13850445  0.47508741    -0.73700
O166        O  0.49202011  0.14075530  0.03962365    -0.79400
O167        O  0.47466812  0.09548471  0.46324824    -0.77600
O168        O  0.44825571  0.11270472  0.49948062    -1.13700
O169        O  0.42315336  0.06215604  0.47273171    -0.72900
C170        C  0.40854609  0.06679166  0.45442220     0.97800
C171        C  0.43912062  0.15066581  0.04474893     0.94200
Al172      Al  0.47716431  0.14601052  0.50143053     1.55600
O173        O  0.39871944  0.07569571  0.02584426    -0.77500
C174        C  0.49589701  0.11804517  0.45921800     0.98400
C175        C  0.44538364  0.15522022  0.45723897     0.93200
O176        O  0.42398219  0.13839991  0.47154673    -0.82900
O177        O  0.67473260  0.58623292  0.46498075    -0.82300
C178        C  0.61097728  0.48727351  0.03251615     0.97000
O179        O  0.60244824  0.49991475  0.01628162    -0.71400
O180        O  0.62354834  0.54956010  0.03640834    -0.75000
Al181      Al  0.62153037  0.53425260  0.49480608     1.49000
C182        C  0.64091707  0.57346057  0.04370232     0.92300
O183        O  0.69341150  0.56276505  0.04145381    -0.81200
O184        O  0.68388393  0.52647087  0.46120389    -0.74800
Al185      Al  0.68230137  0.57249256  0.00346954     1.90100
O186        O  0.68812928  0.52448237  0.02412779    -0.73900
O187        O  0.63200306  0.49156312  0.46625898    -0.73700
O188        O  0.63531614  0.49317423  0.03015738    -0.79400
O189        O  0.61627170  0.51813138  0.45428524    -0.77600
O190        O  0.65508292  0.54003732  0.49815692    -1.13700
O191        O  0.63104421  0.56706173  0.47314022    -0.72900
C192        C  0.65230977  0.58446400  0.45929108     0.97800
C193        C  0.69789473  0.54351637  0.04415109     0.94200
Al194      Al  0.66030341  0.51210163  0.49639813     1.55600
O195        O  0.66379673  0.58530956  0.03007239    -0.77500
C196        C  0.61847349  0.49791560  0.44824969     0.98400
C197        C  0.70463623  0.54965878  0.45929191     0.93200
O198        O  0.70783469  0.56855951  0.47735836    -0.82900
O199        O  0.39905980  0.30665759  0.28915270    -0.82300
C200        C  0.48592616  0.36028430  0.20046864     0.97000
O201        O  0.47495862  0.37044059  0.21698975    -0.71400
O202        O  0.42242589  0.34672736  0.20973944    -0.75000
Al203      Al  0.44491245  0.35574884  0.24584255     1.49000
C204        C  0.39863339  0.32708621  0.20665868     0.92300
O205        O  0.41195060  0.27702637  0.21516891    -0.81200
O206        O  0.46279588  0.30238908  0.28650081    -0.74800
Al207      Al  0.40775562  0.29377195  0.25199901     1.90100
O208        O  0.45332370  0.28599117  0.22463697    -0.73900
O209        O  0.49391772  0.35252868  0.26856501    -0.73700
O210        O  0.48108141  0.33670806  0.20603596    -0.79400
O211        O  0.46808076  0.36863637  0.28155913    -0.77600
O212        O  0.44084831  0.32300376  0.24822059    -1.13700
O213        O  0.41609024  0.34878724  0.27452155    -0.72900
C214        C  0.40160407  0.32951732  0.29307700     0.97800
C215        C  0.43119784  0.27295300  0.20984441     0.94200
Al216      Al  0.47014811  0.31964150  0.24658435     1.55600
O217        O  0.38973199  0.30670415  0.22462736    -0.77500
C218        C  0.48999768  0.36873066  0.28458836     0.98400
C219        C  0.44097441  0.28173348  0.29487539     0.93200
O220        O  0.41897605  0.27481872  0.28034755    -0.82900
O221        O  0.07797378  0.67380810  0.46371269    -0.82300
C222        C  0.12123966  0.62041955  0.03815385     0.97000
O223        O  0.09978747  0.60937546  0.02176553    -0.71400
O224        O  0.06759541  0.62701458  0.03918359    -0.75000
Al225      Al  0.08173311  0.62509134  0.49773269     1.49000
C226        C  0.06100087  0.64423977  0.04605632     0.92300
O227        O  0.12225320  0.69977842  0.03903685    -0.81200
O228        O  0.14943522  0.68854821  0.45861048    -0.74800
Al229      Al  0.10043020  0.68453550  0.00211616     1.90100
O230        O  0.15698556  0.69646252  0.02422439    -0.73900
O231        O  0.13598532  0.63863585  0.46736805    -0.73700
O232        O  0.13861686  0.64504245  0.03448604    -0.79400
O233        O  0.09249601  0.61822366  0.45790394    -0.77600
O234        O  0.10838555  0.65948595  0.49796912    -1.13700
O235        O  0.05642080  0.63067431  0.47453058    -0.72900
C236        C  0.05863462  0.65018266  0.45842738     0.97800
C237        C  0.14652372  0.70576415  0.04286573     0.94200
Al238      Al  0.14275574  0.66744044  0.49544469     1.55600
O239        O  0.07042221  0.66587652  0.03038424    -0.77500
C240        C  0.11578938  0.62269012  0.45072986     0.98400
C241        C  0.14460744  0.70731915  0.45428598     0.93200
O242        O  0.12905777  0.71035434  0.47284424    -0.82900
O243        O  0.31046144  0.90287093  0.28435011    -0.82300
C244        C  0.35904268  0.85397701  0.21354642     0.97000
O245        O  0.37048171  0.87640706  0.22770250    -0.71400
O246        O  0.35302340  0.90819210  0.20822668    -0.75000
Al247      Al  0.35740250  0.89692259  0.24885327     1.49000
C248        C  0.33667559  0.91610280  0.20183462     0.92300
O249        O  0.28035642  0.85719333  0.21228504    -0.81200
O250        O  0.29280002  0.83082648  0.29156916    -0.74800
Al251      Al  0.29692868  0.87945482  0.24827589     1.90100
O252        O  0.28297518  0.82209841  0.22747725    -0.73900
O253        O  0.34368069  0.84414046  0.28320958    -0.73700
O254        O  0.33421111  0.83740372  0.21801457    -0.79400
O255        O  0.36522180  0.88821131  0.28910076    -0.77600
O256        O  0.32272018  0.87082970  0.25067967    -1.13700
O257        O  0.35304809  0.92407157  0.26981862    -0.72900
C258        C  0.33415855  0.92302696  0.28632788     0.97800
C259        C  0.27328881  0.83267066  0.20939206     0.94200
Al260      Al  0.31411762  0.83653342  0.25475087     1.55600
O261        O  0.31601571  0.90871983  0.21901627    -0.77500
C262        C  0.36099982  0.86538095  0.29757484     0.98400
C263        C  0.27349044  0.83522991  0.29429758     0.93200
O264        O  0.27206397  0.85206670  0.27649615    -0.82900
C265        C  0.18199632  0.73960754  0.37759754    -0.11900
C266        C  0.19100263  0.76680726  0.38373319     0.14600
C267        C  0.18226892  0.77397709  0.41141672     0.01500
C268        C  0.16596065  0.75389130  0.43327692    -0.16300
C269        C  0.15827822  0.72676826  0.42817655    -0.11100
C270        C  0.16561576  0.71948291  0.39930440     0.08300
C271        C  0.21217050  0.78708304  0.36279138     0.09300
S272        S  0.19280965  0.80845204  0.42133248    -0.25400
H273        H  0.16032336  0.75972200  0.45517342     0.19600
S274        S  0.15535324  0.68516678  0.38872590    -0.31100
H275        H  0.18859392  0.73413305  0.35616243     0.09900
C276        C  0.23972365  0.79697787  0.36943811     0.03100
C277        C  0.25931041  0.81328520  0.34704599    -0.13400
C278        C  0.25198199  0.81988105  0.31802054    -0.09100
C279        C  0.22421783  0.81051005  0.31191946     0.06500
C280        C  0.20467626  0.79430476  0.33442979    -0.14100
S281        S  0.24982329  0.78792817  0.40596731    -0.31100
H282        H  0.28041848  0.82068328  0.35205427     0.10800
S283        S  0.21206028  0.81673215  0.27517273    -0.28200
H284        H  0.18338939  0.78638557  0.32930193     0.08000
H285        H  0.12991423  0.67321909  0.40365659     0.26400
H286        H  0.27796859  0.80316916  0.40072755     0.21200
H287        H  0.22862073  0.81123496  0.25583433     0.26500
H288        H  0.19786737  0.81846138  0.39006867     0.15400
C289        C  0.20116251  0.74257462  0.10589837    -0.11900
C290        C  0.19475507  0.76153981  0.11708827     0.14600
C291        C  0.17225897  0.76198500  0.10413561     0.01500
C292        C  0.15681606  0.74353549  0.08013277    -0.16300
C293        C  0.16312131  0.72433846  0.06892324    -0.11100
C294        C  0.18553950  0.72384891  0.08248691     0.08300
C295        C  0.21253615  0.78061799  0.14190327     0.09300
S296        S  0.16227587  0.78551019  0.11711791    -0.25400
H297        H  0.13980902  0.74430051  0.07003793     0.19600
S298        S  0.19465040  0.69910526  0.07247283    -0.31100
H299        H  0.21836375  0.74211340  0.11594266     0.09900
C300        C  0.21331154  0.77145346  0.17274421     0.03100
C301        C  0.23342412  0.78889669  0.19411577    -0.13400
C302        C  0.25260418  0.81554472  0.18553908    -0.09100
C303        C  0.25120994  0.82493502  0.15486570     0.06500
C304        C  0.23112041  0.80740814  0.13347831    -0.14100
S305        S  0.18849433  0.73755220  0.18492241    -0.31100
H306        H  0.23417017  0.78176099  0.21772448     0.10800
S307        S  0.27544575  0.85829635  0.14077771    -0.28200
H308        H  0.23071360  0.81431809  0.10960002     0.08000
H309        H  0.16822053  0.67755207  0.07783759     0.26400
H310        H  0.19921740  0.73884890  0.21544925     0.21200
H311        H  0.29803535  0.85926921  0.15540813     0.26500
H312        H  0.17195657  0.78830158  0.14847167     0.15400
C313        C  0.58431561  0.47275517  0.36809953    -0.11900
C314        C  0.56853631  0.44493036  0.37408551     0.14600
C315        C  0.57099535  0.43469795  0.40366285     0.01500
C316        C  0.58882779  0.45241192  0.42657953    -0.16300
C317        C  0.60352535  0.48033647  0.42124291    -0.11100
C318        C  0.60164528  0.49058886  0.39141598     0.08300
C319        C  0.54958620  0.42693712  0.34930370     0.09300
S320        S  0.55092986  0.39949861  0.41434017    -0.25400
H321        H  0.59004515  0.44445058  0.44951658     0.19600
S322        S  0.62096951  0.52601050  0.38156651    -0.31100
H323        H  0.58288805  0.48062421  0.34520375     0.09900
C324        C  0.52689530  0.42864181  0.33998776     0.03100
C325        C  0.50818784  0.40965095  0.31853451    -0.13400
C326        C  0.51142064  0.38871947  0.30619319    -0.09100
C327        C  0.53483291  0.38772791  0.31497945     0.06500
C328        C  0.55350473  0.40678494  0.33631272    -0.14100
S329        S  0.52094389  0.45416264  0.35652746    -0.31100
H330        H  0.49072993  0.41101944  0.31164820     0.10800
S331        S  0.54183414  0.36226848  0.30123605    -0.28200
H332        H  0.57106892  0.40560681  0.34340157     0.08000
H333        H  0.64362482  0.53188753  0.40047203     0.26400
H334        H  0.49628799  0.44607306  0.34076648     0.21200
H335        H  0.54441381  0.37059740  0.26929659     0.26500
H336        H  0.52740803  0.39450536  0.39792143     0.15400
C337        C  0.57680054  0.42500371  0.08608317    -0.11900
C338        C  0.55601448  0.42785395  0.09957245     0.14600
C339        C  0.55282984  0.44955884  0.08987805     0.01500
C340        C  0.57094779  0.46837340  0.06801052    -0.16300
C341        C  0.59205728  0.46588013  0.05471613    -0.11100
C342        C  0.59441695  0.44335984  0.06330666     0.08300
C343        C  0.53916927  0.40930621  0.12538416     0.09300
S344        S  0.52616275  0.45451446  0.10477283    -0.25400
H345        H  0.56860572  0.48529932  0.06153203     0.19600
S346        S  0.61850251  0.43613218  0.04522123    -0.31100
H347        H  0.57923074  0.40827857  0.09327550     0.09900
C348        C  0.52010044  0.38177638  0.11986723     0.03100
C349        C  0.50343328  0.36573211  0.14498651    -0.13400
C350        C  0.50535327  0.37684182  0.17532595    -0.09100
C351        C  0.52523300  0.40417461  0.18087780     0.06500
C352        C  0.54175143  0.42001208  0.15597404    -0.14100
S353        S  0.51587137  0.36754809  0.08051172    -0.31100
H354        H  0.48819828  0.34480839  0.14074633     0.10800
S355        S  0.53101047  0.41990722  0.21943829    -0.28200
H356        H  0.55670066  0.44102939  0.16039927     0.08000
H357        H  0.61505262  0.44337731  0.01432926     0.26400
H358        H  0.49655904  0.34083916  0.08884798     0.21200
H359        H  0.52873687  0.39753865  0.23569055     0.26500
H360        H  0.50694469  0.42697554  0.10889446     0.15400
C361        C  0.35662368  0.01945033  0.39307224    -0.11900
C362        C  0.37124473  0.00878546  0.37855415     0.14600
C363        C  0.39828764  0.01840708  0.38807876     0.01500
C364        C  0.40992690  0.03798164  0.41191858    -0.16300
C365        C  0.39516328  0.04804382  0.42735393    -0.11100
C366        C  0.36815467  0.03869268  0.41761675     0.08300
C367        C  0.35805399  0.98728679  0.35403452     0.09300
S368        S  0.41889809  0.00604188  0.37132947    -0.25400
H369        H  0.43068563  0.04502698  0.41901734     0.19600
S370        S  0.34691944  0.04918325  0.43674735    -0.31100
H371        H  0.33583750  0.01211067  0.38589700     0.09900
C372        C  0.33893387  0.96040314  0.36240304     0.03100
C373        C  0.33011154  0.93988972  0.33933760    -0.13400
C374        C  0.34033150  0.94567207  0.30817614    -0.09100
C375        C  0.35828579  0.97288259  0.29947171     0.06500
C376        C  0.36701848  0.99327442  0.32244986    -0.14100
S377        S  0.32748499  0.95189928  0.40304364    -0.31100
H378        H  0.31638725  0.91908882  0.34601777     0.10800
S379        S  0.37085801  0.98291500  0.25948066    -0.28200
H380        H  0.38153207  0.01393150  0.31588924     0.08000
H381        H  0.35592894  0.04864394  0.46776179     0.26400
H382        H  0.30987117  0.92409312  0.39801784     0.21200
H383        H  0.34702037  0.96301935  0.24449565     0.26500
H384        H  0.39775839  0.97914583  0.36768544     0.15400
C385        C  0.39040189  0.02551028  0.11906265    -0.11900
C386        C  0.36970063  0.00033384  0.10803082     0.14600
C387        C  0.35956685  0.99802018  0.07680961     0.01500
C388        C  0.37119553  0.02067563  0.05692156    -0.16300
C389        C  0.39321912  0.04529412  0.06729789    -0.11100
C390        C  0.40232569  0.04796448  0.09901544     0.08300
C391        C  0.36005432  0.97690814  0.12947943     0.09300
S392        S  0.33317088  0.96655115  0.06026961    -0.25400
H393        H  0.36438575  0.01854219  0.03243306     0.19600
S394        S  0.42952985  0.07927296  0.11493367    -0.31100
H395        H  0.39786091  0.02744079  0.14322216     0.09900
C396        C  0.37695624  0.96666690  0.13745653     0.03100
C397        C  0.36829989  0.94618053  0.16019904    -0.13400
C398        C  0.34299123  0.93556744  0.17536397    -0.09100
C399        C  0.32550793  0.94505865  0.16584357     0.06500
C400        C  0.33428096  0.96558053  0.14311284    -0.14100
S401        S  0.40958133  0.97963633  0.11849975    -0.31100
H402        H  0.38171390  0.93887186  0.16663825     0.10800
S403        S  0.29186290  0.93210083  0.18142685    -0.28200
H404        H  0.32117409  0.97326514  0.13652998     0.08000
H405        H  0.42622673  0.09636722  0.09384237     0.26400
H406        H  0.41788568  0.96416456  0.13578346     0.21200
H407        H  0.30153477  0.94356072  0.21166977     0.26500
H408        H  0.33907785  0.94951870  0.07808899     0.15400
C409        C  0.41957800  0.23364467  0.13313435    -0.11900
C410        C  0.42706571  0.21488489  0.14249298     0.14600
C411        C  0.43435399  0.21452781  0.17458911     0.01500
C412        C  0.43534538  0.23362725  0.19594885    -0.16300
C413        C  0.42824824  0.25257869  0.18646553    -0.11100
C414        C  0.41994460  0.25235910  0.15477243     0.08300
C415        C  0.42944774  0.19766166  0.11786875     0.09300
S416        S  0.44246940  0.19018025  0.18986859    -0.25400
H417        H  0.44150577  0.23357034  0.22035589     0.19600
S418        S  0.41111696  0.27634741  0.14008854    -0.31100
H419        H  0.41431399  0.23432683  0.10850360     0.09900
C420        C  0.40701930  0.17883043  0.09962603     0.03100
C421        C  0.41060493  0.16341142  0.07632081    -0.13400
C422        C  0.43606888  0.16604741  0.07116204    -0.09100
C423        C  0.45819533  0.18415165  0.09052092     0.06500
C424        C  0.45483262  0.20019976  0.11284610    -0.14100
S425        S  0.37367196  0.17384159  0.10654111    -0.31100
H426        H  0.39355604  0.14946170  0.06176836     0.10800
S427        S  0.49066906  0.18635665  0.08964034    -0.28200
H428        H  0.47206607  0.21436992  0.12707145     0.08000
H429        H  0.43054711  0.29837602  0.15811445     0.26400
H430        H  0.35982524  0.15316837  0.08399459     0.21200
H431        H  0.47910497  0.15815395  0.08932467     0.26500
H432        H  0.42568986  0.16933687  0.16868344     0.15400
C433        C  0.42515712  0.18325468  0.38741427    -0.11900
C434        C  0.44392030  0.21098459  0.39046634     0.14600
C435        C  0.46285163  0.22013231  0.41577195     0.01500
C436        C  0.46322355  0.20135269  0.43656796    -0.16300
C437        C  0.44458902  0.17362141  0.43341990    -0.11100
C438        C  0.42540195  0.16450238  0.40845229     0.08300
C439        C  0.44369811  0.22963566  0.36631563     0.09300
S440        S  0.48685196  0.25538260  0.42317202    -0.25400
H441        H  0.47777601  0.20851671  0.45594708     0.19600
S442        S  0.40178164  0.12921635  0.40124948    -0.31100
H443        H  0.41068587  0.17612270  0.36796240     0.09900
C444        C  0.46479822  0.24272139  0.34394376     0.03100
C445        C  0.46369314  0.26020453  0.32154964    -0.13400
C446        C  0.44177144  0.26468114  0.32072943    -0.09100
C447        C  0.42090827  0.25185119  0.34353031     0.06500
C448        C  0.42189214  0.23421205  0.36572058    -0.14100
S449        S  0.49257026  0.23632973  0.34303298    -0.31100
H450        H  0.47960696  0.26985954  0.30395879     0.10800
S451        S  0.39335802  0.25827686  0.34658363    -0.28200
H452        H  0.40582279  0.22439673  0.38313336     0.08000
H453        H  0.42019472  0.12080574  0.40915519     0.26400
H454        H  0.50677203  0.25378707  0.31765628     0.21200
H455        H  0.40966942  0.28607968  0.34041167     0.26500
H456        H  0.47185052  0.26566794  0.40876535     0.15400
C457        C  0.02244749  0.65297464  0.38307965    -0.11900
C458        C  0.99706992  0.62928005  0.38643798     0.14600
C459        C  0.99222049  0.61295125  0.41355595     0.01500
C460        C  0.01218429  0.62110736  0.43704214    -0.16300
C461        C  0.03784467  0.64450597  0.43358399    -0.11100
C462        C  0.04300667  0.66045166  0.40589220     0.08300
C463        C  0.97715575  0.62047379  0.35989844     0.09300
S464        S  0.96168912  0.58059454  0.41879016    -0.25400
H465        H  0.00786969  0.60837884  0.45779745     0.19600
S466        S  0.07579823  0.68920191  0.39688157    -0.31100
H467        H  0.02663639  0.66513793  0.36182508     0.09900
C468        C  0.95102716  0.61686735  0.36362804     0.03100
C469        C  0.93159494  0.60412554  0.33934879    -0.13400
C470        C  0.93797740  0.59543723  0.31112051    -0.09100
C471        C  0.96508411  0.60167231  0.30640002     0.06500
C472        C  0.98406121  0.61358899  0.33091685    -0.14100
S473        S  0.94243947  0.62832033  0.39934292    -0.31100
H474        H  0.91114148  0.60006924  0.34284403     0.10800
S475        S  0.97710438  0.59531968  0.26964053    -0.28200
H476        H  0.00432508  0.61699018  0.32761778     0.08000
H477        H  0.09002204  0.67620052  0.40541823     0.26400
H478        H  0.91494233  0.61798459  0.39187700     0.21200
H479        H  0.96115707  0.60167477  0.25025692     0.26500
H480        H  0.95838411  0.57318828  0.38648317     0.15400
C481        C  0.00294819  0.63956131  0.09489330    -0.11900
C482        C  0.99928042  0.61992225  0.11712752     0.14600
C483        C  0.01746766  0.61027368  0.11789538     0.01500
C484        C  0.03797177  0.61928165  0.09511656    -0.16300
C485        C  0.04122103  0.63829535  0.07190552    -0.11100
C486        C  0.02389566  0.64917827  0.07262772     0.08300
C487        C  0.97510864  0.60830554  0.13756690     0.09300
S488        S  0.01508186  0.58591762  0.14672852    -0.25400
H489        H  0.05130306  0.61107624  0.09532483     0.19600
S490        S  0.02591952  0.67379427  0.04459658    -0.31100
H491        H  0.98896730  0.64699709  0.09445428     0.09900
C492        C  0.97356967  0.62244810  0.16399886     0.03100
C493        C  0.95097083  0.60971806  0.18401804    -0.13400
C494        C  0.93034825  0.58292554  0.17845352    -0.09100
C495        C  0.93115329  0.56941373  0.15080772     0.06500
C496        C  0.95360228  0.58231907  0.13060019    -0.14100
S497        S  0.00127047  0.65583565  0.17351247    -0.31100
H498        H  0.95015201  0.62008309  0.20510039     0.10800
S499        S  0.90359931  0.53594914  0.14095578    -0.28200
H500        H  0.95482765  0.57200110  0.10968802     0.08000
H501        H  0.05219978  0.69346961  0.05445354     0.26400
H502        H  0.98889506  0.66036726  0.19976693     0.21200
H503        H  0.91463204  0.53293857  0.11244700     0.26500
H504        H  0.00335984  0.59332033  0.17110993     0.15400
C505        C  0.73338157  0.52182456  0.10384938    -0.11900
C506        C  0.75300404  0.54671503  0.11661209     0.14600
C507        C  0.75415176  0.57051963  0.10585784     0.01500
C508        C  0.73572572  0.56883558  0.08265934    -0.16300
C509        C  0.71581506  0.54383839  0.07000774    -0.11100
C510        C  0.71462533  0.52003112  0.08125141     0.08300
C511        C  0.77184424  0.54678545  0.14093421     0.09300
S512        S  0.77862880  0.60360485  0.12056606    -0.25400
H513        H  0.73717182  0.58731059  0.07421469     0.19600
S514        S  0.68911332  0.48657466  0.06901283    -0.31100
H515        H  0.73238640  0.50348619  0.11205986     0.09900
C516        C  0.76230856  0.53481491  0.17100592     0.03100
C517        C  0.78020803  0.53325752  0.19248100    -0.13400
C518        C  0.80759409  0.54354321  0.18472577    -0.09100
C519        C  0.81711180  0.55560196  0.15454582     0.06500
C520        C  0.79922330  0.55730004  0.13315846    -0.14100
S521        S  0.72740555  0.52193827  0.18231076    -0.31100
H522        H  0.77289888  0.52421684  0.21564856     0.10800
S523        S  0.85128153  0.56769066  0.14114249    -0.28200
H524        H  0.80647460  0.56610970  0.10986108     0.08000
H525        H  0.66780819  0.49170465  0.07314442     0.26400
H526        H  0.72975923  0.51516679  0.21384751     0.21200
H527        H  0.85353926  0.54681375  0.15543591     0.26500
H528        H  0.78121985  0.59528361  0.15115299     0.15400
C529        C  0.76945483  0.56145990  0.42113029    -0.11900
C530        C  0.76185644  0.55736532  0.38893104     0.14600
C531        C  0.73612008  0.55295175  0.37995872     0.01500
C532        C  0.71800860  0.55108639  0.40341655    -0.16300
C533        C  0.72539756  0.55458246  0.43559850    -0.11100
C534        C  0.75164044  0.56056153  0.44449324     0.08300
C535        C  0.77941402  0.55416346  0.36577027     0.09300
S536        S  0.72495671  0.54880901  0.33908030    -0.25400
H537        H  0.69790942  0.54668493  0.39656323     0.19600
S538        S  0.76235282  0.56438944  0.48546378    -0.31100
H539        H  0.78900815  0.56447719  0.42817727     0.09900
C540        C  0.80488172  0.57583899  0.35650611     0.03100
C541        C  0.81993186  0.57158931  0.33326987    -0.13400
C542        C  0.80989666  0.54611800  0.31899805    -0.09100
C543        C  0.78415172  0.52454487  0.32841726     0.06500
C544        C  0.76964892  0.52869546  0.35207806    -0.14100
S545        S  0.81774944  0.60900985  0.37344862    -0.31100
H546        H  0.83956503  0.58815480  0.32616712     0.10800
S547        S  0.76751294  0.49171146  0.30985473    -0.28200
H548        H  0.74997318  0.51208038  0.35911766     0.08000
H549        H  0.75515265  0.58375238  0.49265687     0.26400
H550        H  0.84216391  0.62198218  0.35620539     0.21200
H551        H  0.77347303  0.50209956  0.27869431     0.26500
H552        H  0.75092938  0.56467583  0.32581605     0.15400
C553        C  0.54261006  0.10216843  0.41282020    -0.11900
C554        C  0.55256193  0.12227418  0.38942849     0.14600
C555        C  0.54454602  0.14181816  0.38971869     0.01500
C556        C  0.52692319  0.14078806  0.41357534    -0.16300
C557        C  0.51641544  0.12012928  0.43642007    -0.11100
C558        C  0.52487346  0.10097901  0.43629214     0.08300
C559        C  0.57000848  0.12094772  0.36444013     0.09300
S560        S  0.55506332  0.16781900  0.35987926    -0.25400
H561        H  0.52045682  0.15549964  0.41350816     0.19600
S562        S  0.51444157  0.07500342  0.46603287    -0.31100
H563        H  0.54880188  0.08724102  0.41279616     0.09900
C564        C  0.59795416  0.14004227  0.36223373     0.03100
C565        C  0.61347654  0.13686721  0.33868328    -0.13400
C566        C  0.60168766  0.11473550  0.31773444    -0.09100
C567        C  0.57367240  0.09567202  0.32015381     0.06500
C568        C  0.55829015  0.09888892  0.34354737    -0.14100
S569        S  0.61405175  0.16771477  0.39012782    -0.31100
H570        H  0.63499051  0.15134777  0.33693954     0.10800
S571        S  0.55601436  0.06743267  0.29341923    -0.28200
H572        H  0.53681576  0.08416474  0.34531500     0.08000
H573        H  0.51699531  0.09202307  0.49145596     0.26400
H574        H  0.63984917  0.18066034  0.37588271     0.21200
H575        H  0.56952720  0.08214136  0.26606521     0.26500
H576        H  0.55958368  0.15404373  0.33529528     0.15400
C577        C  0.59884959  0.13974813  0.13435567    -0.11900
C578        C  0.57163149  0.13008583  0.14218445     0.14600
C579        C  0.56180838  0.11827699  0.17226393     0.01500
C580        C  0.57904652  0.11553540  0.19338398    -0.16300
C581        C  0.60620932  0.12483839  0.18557144    -0.11100
C582        C  0.61630841  0.13749053  0.15584722     0.08300
C583        C  0.55292730  0.12884517  0.11716861     0.09300
S584        S  0.52723344  0.10551594  0.18467218    -0.25400
H585        H  0.57113992  0.10606339  0.21622863     0.19600
S586        S  0.65033177  0.14857270  0.14290137    -0.31100
H587        H  0.60626374  0.14827393  0.11098342     0.09900
C588        C  0.55184601  0.15166614  0.10746165     0.03100
C589        C  0.53294847  0.14880231  0.08412689    -0.13400
C590        C  0.51477945  0.12341496  0.07069383    -0.09100
C591        C  0.51566453  0.10048077  0.08153725     0.06500
C592        C  0.53498934  0.10363599  0.10396559    -0.14100
S593        S  0.57409491  0.18419767  0.12528898    -0.31100
H594        H  0.53254810  0.16646440  0.07614158     0.10800
S595        S  0.49220301  0.06629165  0.06926721    -0.28200
H596        H  0.53558846  0.08603919  0.11197123     0.08000
H597        H  0.66222478  0.16877156  0.16637503     0.26400
H598        H  0.56216210  0.19776089  0.11103272     0.21200
H599        H  0.46932777  0.06842481  0.07581598     0.26500
H600        H  0.52304167  0.12362722  0.16660033     0.15400
C601        C  0.77164437  0.20035440  0.33300945    -0.11900
C602        C  0.76193386  0.20276985  0.36265421     0.14600
C603        C  0.73437804  0.18550265  0.37044569     0.01500
C604        C  0.71704041  0.16639568  0.34827578    -0.16300
C605        C  0.72660911  0.16419060  0.31840987    -0.11100
C606        C  0.75432736  0.18107927  0.31091675     0.08300
C607        C  0.78107255  0.22311176  0.38528062     0.09300
S608        S  0.72009238  0.18718073  0.40799478    -0.25400
H609        H  0.69573275  0.15362256  0.35401197     0.19600
S610        S  0.76814514  0.18046885  0.27267071    -0.31100
H611        H  0.79282460  0.21361606  0.32706559     0.09900
C612        C  0.79142267  0.21562769  0.41110845     0.03100
C613        C  0.80815690  0.23524137  0.43325577    -0.13400
C614        C  0.81502810  0.26231821  0.42991592    -0.09100
C615        C  0.80575429  0.26997006  0.40289893     0.06500
C616        C  0.78859737  0.25020245  0.38110030    -0.14100
S617        S  0.78315950  0.18105452  0.41588907    -0.31100
H618        H  0.81537467  0.22928539  0.45373077     0.10800
S619        S  0.81568289  0.30449476  0.39428539    -0.28200
H620        H  0.78100003  0.25592333  0.36073901     0.08000
H621        H  0.76115083  0.15333425  0.27560356     0.26400
H622        H  0.79848989  0.18509201  0.44368752     0.21200
H623        H  0.84255011  0.31545642  0.40506882     0.26500
H624        H  0.73639958  0.21528804  0.41177707     0.15400
C625        C  0.75207810  0.17135729  0.13321273    -0.11900
C626        C  0.76514429  0.19945885  0.13700076     0.20600
C627        C  0.75907075  0.21014014  0.16385475     0.01500
C628        C  0.74116653  0.19264070  0.18689580    -0.16300
C629        C  0.72797295  0.16442305  0.18332341    -0.11100
C630        C  0.73323815  0.15377925  0.15562425     0.08300
C631        C  0.78350029  0.21713886  0.11154198     0.09300
S632        S  0.77285450  0.24586811  0.16973148    -0.25400
H633        H  0.73721715  0.20127650  0.20765816     0.19600
S634        S  0.71550606  0.11826982  0.14627577    -0.31100
H635        H  0.75603794  0.16307695  0.11211775     0.09900
C636        C  0.81163842  0.23408360  0.11639468     0.03100
C637        C  0.82755410  0.25232486  0.09242439    -0.13400
C638        C  0.81586591  0.25390341  0.06367783    -0.09100
C639        C  0.78786175  0.23578059  0.05826864     0.06500
C640        C  0.77206545  0.21772403  0.08230277    -0.14100
S641        S  0.82719777  0.23250476  0.15311811    -0.31100
H642        H  0.84901521  0.26593651  0.09642116     0.10800
S643        S  0.77201332  0.23481229  0.02058957    -0.28200
H644        H  0.75051111  0.20433184  0.07868203     0.08000
H645        H  0.68998607  0.11407924  0.15506216     0.26400
H646        H  0.85390722  0.25240337  0.14526979     0.21200
H647        H  0.74598553  0.21313187  0.02777697     0.26500
H648        H  0.77403676  0.25253368  0.13735329     0.15400
C649        C  0.84922149  0.41887253  0.42588051    -0.11900
C650        C  0.85897374  0.42011922  0.39500825     0.14600
C651        C  0.86970686  0.40368550  0.38656624     0.01500
C652        C  0.87027273  0.38622115  0.40917987    -0.16300
C653        C  0.86086564  0.38521111  0.44019273    -0.11100
C654        C  0.85033339  0.40180495  0.44867701     0.08300
C655        C  0.85789897  0.43888310  0.37215204     0.09300
S656        S  0.88285453  0.40391604  0.34747146    -0.25400
H657        H  0.87826517  0.37341287  0.40260773     0.19600
S658        S  0.83934652  0.40310225  0.48846704    -0.31100
H659        H  0.84118393  0.43166401  0.43237553     0.09900
C660        C  0.83759370  0.42970689  0.34870177     0.03100
C661        C  0.83874276  0.44781933  0.32569815    -0.13400
C662        C  0.85969128  0.47503507  0.32591293    -0.09100
C663        C  0.87899160  0.48447912  0.35094405     0.06500
C664        C  0.87806593  0.46619754  0.37348672    -0.14100
S665        S  0.81048647  0.39485541  0.34789117    -0.31100
H666        H  0.82371952  0.44050697  0.30689197     0.10800
S667        S  0.90488464  0.51946480  0.35604541    -0.28200
H668        H  0.89328885  0.47323462  0.39210582     0.08000
H669        H  0.86061650  0.40193711  0.50357346     0.26400
H670        H  0.79690105  0.39694908  0.32112036     0.21200
H671        H  0.88808844  0.52962160  0.34711972     0.26500
H672        H  0.89147432  0.43088234  0.33997308     0.15400
C673        C  0.85814825  0.42525751  0.17541462    -0.11900
C674        C  0.84304360  0.42102525  0.14757303     0.14600
C675        C  0.82836700  0.43445957  0.14366875     0.01500
C676        C  0.83112356  0.45364114  0.16622960    -0.16300
C677        C  0.84768875  0.45923230  0.19320511    -0.11100
C678        C  0.86018572  0.44370599  0.19851110     0.08300
C679        C  0.84574954  0.40515850  0.12159176     0.09300
S680        S  0.80673202  0.42877412  0.10977895    -0.25400
H681        H  0.82087018  0.46482219  0.16216803     0.19600
S682        S  0.87866678  0.44602268  0.23432998    -0.31100
H683        H  0.86895465  0.41453174  0.17883522     0.09900
C684        C  0.86217067  0.41825692  0.09500641     0.03100
C685        C  0.86532512  0.40296682  0.07132776    -0.13400
C686        C  0.85240835  0.37468285  0.07341402    -0.09100
C687        C  0.83602697  0.36161718  0.10033724     0.06500
C688        C  0.83312226  0.37700727  0.12421409    -0.14100
S689        S  0.87999629  0.45464968  0.09179786    -0.31100
H690        H  0.87802529  0.41320366  0.05099543     0.10800
S691        S  0.81983423  0.32575003  0.10661821    -0.28200
H692        H  0.82093545  0.36699232  0.14500893     0.08000
H693        H  0.86075154  0.44876746  0.25471025     0.26400
H694        H  0.89257350  0.45659035  0.06240366     0.21200
H695        H  0.80187317  0.31965778  0.08087507     0.26500
H696        H  0.80074031  0.40229870  0.10352882     0.15400
C697        C  0.64597098  0.02316712  0.36861437    -0.11900
C698        C  0.62571376  0.99661810  0.36107364     0.14600
C699        C  0.61648855  0.99035666  0.32930303     0.01500
C700        C  0.62615984  0.01091465  0.30652957    -0.16300
C701        C  0.64565462  0.03774399  0.31419996    -0.11100
C702        C  0.65639866  0.04361130  0.34545227     0.08300
C703        C  0.61257020  0.97652759  0.38709867     0.09300
S704        S  0.59189759  0.95662751  0.31644621    -0.25400
H705        H  0.61805375  0.00593408  0.28254910     0.19600
S706        S  0.68159577  0.07712142  0.35786794    -0.31100
H707        H  0.65317243  0.02815427  0.39293593     0.09900
C708        C  0.62621744  0.96574876  0.40394298     0.03100
C709        C  0.61238945  0.94617499  0.42769169    -0.13400
C710        C  0.58514962  0.93716282  0.43499325    -0.09100
C711        C  0.57155288  0.94785308  0.41764485     0.06500
C712        C  0.58542090  0.96754747  0.39439719    -0.14100
S713        S  0.66094744  0.97632671  0.39451946    -0.31100
H714        H  0.62286775  0.93802498  0.44084200     0.10800
S715        S  0.53596151  0.93569048  0.42225365    -0.28200
H716        H  0.57472698  0.97548737  0.38122545     0.08000
H717        H  0.70058658  0.07934734  0.33506584     0.26400
H718        H  0.66436991  0.96089623  0.41800404     0.21200
H719        H  0.52897294  0.90853522  0.41954837     0.26500
H720        H  0.59878184  0.94314357  0.33912115     0.15400
C721        C  0.63131052  0.97610480  0.08719484    -0.11900
C722        C  0.61778500  0.97686248  0.11454337     0.14600
C723        C  0.59101911  0.95586280  0.12042174     0.01500
C724        C  0.57775738  0.93539410  0.09793997    -0.16300
C725        C  0.59074023  0.93509561  0.06978035    -0.11100
C726        C  0.61818640  0.95528173  0.06490024     0.08300
C727        C  0.63033207  0.00135666  0.13437141     0.09300
S728        S  0.57210862  0.95507061  0.15512326    -0.25400
H729        H  0.55681265  0.91992536  0.10207755     0.19600
S730        S  0.63649178  0.95729538  0.02923756    -0.31100
H731        H  0.65179994  0.99240123  0.08258989     0.09900
C732        C  0.64819575  0.00498653  0.15939905     0.03100
C733        C  0.65599991  0.02650553  0.18064695    -0.13400
C734        C  0.64611727  0.04428370  0.17723962    -0.09100
C735        C  0.63005769  0.04178711  0.15036614     0.06500
C736        C  0.62212753  0.02018423  0.12951301    -0.14100
S737        S  0.65918152  0.98099544  0.16565146    -0.31100
H738        H  0.66845898  0.02847152  0.20103341     0.10800
S739        S  0.61851997  0.06498647  0.14143859    -0.28200
H740        H  0.60878313  0.01754346  0.10977126     0.08000
H741        H  0.63432892  0.93213824  0.03453609     0.26400
H742        H  0.67533524  0.99359244  0.19261931     0.21200
H743        H  0.64140044  0.08791059  0.15401921     0.26500
H744        H  0.59448639  0.96787583  0.17577639     0.15400
C745        C  0.38645854  0.84208501  0.36742677    -0.11900
C746        C  0.41356220  0.86306324  0.36889355     0.14600
C747        C  0.42312149  0.88465576  0.34712515     0.01500
C748        C  0.40528516  0.88499730  0.32473707    -0.16300
C749        C  0.37806368  0.86408381  0.32313983    -0.11100
C750        C  0.36855755  0.84250033  0.34505472     0.08300
C751        C  0.43110758  0.86253776  0.39422643     0.09300
S752        S  0.45770395  0.91250737  0.34676324    -0.25400
H753        H  0.41294663  0.90155087  0.30791314     0.19600
S754        S  0.33358135  0.81607816  0.34723698    -0.31100
H755        H  0.37902553  0.82571425  0.38448256     0.09900
C756        C  0.43749751  0.87902453  0.42141076     0.03100
C757        C  0.45558991  0.87918301  0.44395918    -0.13400
C758        C  0.46716145  0.86299190  0.43994487    -0.09100
C759        C  0.46069426  0.84648153  0.41270162     0.06500
C760        C  0.44241229  0.84611949  0.39033742    -0.14100
S761        S  0.42243538  0.89964940  0.42744029    -0.31100
H762        H  0.46066909  0.89181914  0.46493068     0.10800
S763        S  0.47642360  0.82690193  0.40423915    -0.28200
H764        H  0.43770734  0.83372504  0.36918230     0.08000
H765        H  0.32411544  0.83385683  0.34142302     0.26400
H766        H  0.43478004  0.91057818  0.45697072     0.21200
H767        H  0.50220021  0.84653563  0.41550553     0.26500
H768        H  0.46971157  0.89845846  0.35933037     0.15400
C769        C  0.41865487  0.85343105  0.17501238    -0.11900
C770        C  0.40820027  0.84309886  0.14474651     0.14600
C771        C  0.38030566  0.83288048  0.13875177     0.01500
C772        C  0.36426240  0.83556662  0.16201842    -0.16300
C773        C  0.37526735  0.84762210  0.19157005    -0.11100
C774        C  0.40248251  0.85540527  0.19853002     0.08300
C775        C  0.42751736  0.84573275  0.11939435     0.09300
S776        S  0.36425203  0.81698883  0.10161981    -0.25400
H777        H  0.34330223  0.82902527  0.15660117     0.19600
S778        S  0.41777026  0.86789699  0.23703125    -0.31100
H779        H  0.43982995  0.86069697  0.18010298     0.09900
C780        C  0.43380439  0.86398289  0.09398835     0.03100
C781        C  0.45290639  0.86684427  0.07117719    -0.13400
C782        C  0.46670948  0.85253003  0.07345754    -0.09100
C783        C  0.46126708  0.83513566  0.09977736     0.06500
C784        C  0.44148469  0.83162477  0.12209595    -0.14100
S785        S  0.41860551  0.88479865  0.09138955    -0.31100
H786        H  0.45718289  0.88046776  0.05138051     0.10800
S787        S  0.47995911  0.81827125  0.10739179    -0.28200
H788        H  0.43742559  0.81831649  0.14221386     0.08000
H789        H  0.39394792  0.85135362  0.25435187     0.26400
H790        H  0.43116925  0.89805835  0.06288328     0.21200
H791        H  0.50511997  0.84008569  0.09764064     0.26500
H792        H  0.38224573  0.80804469  0.09388652     0.15400
C793        C  0.10311828  0.52785628  0.36080170    -0.11900
C794        C  0.11950525  0.55508178  0.35243170     0.14600
C795        C  0.13579885  0.56206265  0.32494349     0.01500
C796        C  0.13497822  0.54159390  0.30616790    -0.16300
C797        C  0.11799670  0.51422451  0.31404388    -0.11100
C798        C  0.10241669  0.50742303  0.34219721     0.08300
C799        C  0.12016028  0.57545959  0.37424322     0.09300
S800        S  0.15754247  0.59650647  0.31220664    -0.25400
H801        H  0.14695917  0.54708587  0.28457493     0.19600
S802        S  0.08237727  0.47328458  0.35654310    -0.31100
H803        H  0.09118872  0.52254354  0.38243077     0.09900
C804        C  0.09791510  0.57932362  0.37683892     0.03100
C805        C  0.09749185  0.59560017  0.40133539    -0.13400
C806        C  0.11910862  0.60849671  0.42311529    -0.09100
C807        C  0.14240913  0.60617031  0.41858229     0.06500
C808        C  0.14238991  0.58933733  0.39461750    -0.14100
S809        S  0.07002460  0.56334206  0.34901074    -0.31100
H810        H  0.07997314  0.59789307  0.40380951     0.10800
S811        S  0.17239251  0.62290624  0.44303743    -0.28200
H812        H  0.15963237  0.58653167  0.39223861     0.08000
H813        H  0.10115846  0.46588364  0.34681189     0.26400
H814        H  0.05482182  0.57416101  0.36154096     0.21200
H815        H  0.17717860  0.64881135  0.43553032     0.26500
H816        H  0.14235741  0.60690308  0.32581258     0.15400
C817        C  0.12085359  0.56131728  0.07800860    -0.11900
C818        C  0.12503917  0.56960347  0.10991675     0.14600
C819        C  0.13055219  0.59583315  0.11767153     0.01500
C820        C  0.13098917  0.61282422  0.09347925    -0.16300
C821        C  0.12550936  0.60399001  0.06176498    -0.11100
C822        C  0.12119226  0.57822635  0.05391328     0.08300
C823        C  0.12333596  0.55028478  0.13439182     0.09300
S824        S  0.13606656  0.60839267  0.15797082    -0.25400
H825        H  0.13411997  0.63247563  0.09970972     0.19600
S826        S  0.11633079  0.56594250  0.01352821    -0.31100
H827        H  0.11716009  0.54142688  0.07187780     0.09900
C828        C  0.09822228  0.52765188  0.14286147     0.03100
C829        C  0.09739291  0.50978360  0.16611094    -0.13400
C830        C  0.12115575  0.51400482  0.18120538    -0.09100
C831        C  0.14628751  0.53692553  0.17279604     0.06500
C832        C  0.14711399  0.55457426  0.14928085    -0.14100
S833        S  0.06711749  0.52192278  0.12468290    -0.31100
H834        H  0.07810025  0.49236662  0.17256386     0.10800
S835        S  0.17774568  0.54569672  0.19231593    -0.28200
H836        H  0.16638962  0.57210592  0.14293246     0.08000
H837        H  0.13315150  0.59138837  0.99966246     0.26400
H838        H  0.04945474  0.49823675  0.14149679     0.21200
H839        H  0.16653474  0.54000929  0.22309619     0.26500
H840        H  0.11912301  0.58335422  0.17262327     0.15400
C841        C  0.02435487  0.37086232  0.36864504    -0.11900
C842        C  0.99748248  0.36210730  0.35978721     0.14600
C843        C  0.99179904  0.36524963  0.32792225     0.01500
C844        C  0.01310877  0.37888253  0.30639915    -0.16300
C845        C  0.04022883  0.38913049  0.31557465    -0.11100
C846        C  0.04577853  0.38432546  0.34695890     0.08300
C847        C  0.97669952  0.35438769  0.38499953     0.09300
S848        S  0.95779881  0.35313302  0.31360894    -0.25400
H849        H  0.00846050  0.38182820  0.28223595     0.19600
S850        S  0.07959870  0.39641633  0.36170982    -0.31100
H851        H  0.02884939  0.36866555  0.39314592     0.09900
C852        C  0.96600923  0.33010406  0.40228590     0.03100
C853        C  0.94633040  0.32424461  0.42586324    -0.13400
C854        C  0.93745085  0.34240800  0.43272888    -0.09100
C855        C  0.94814111  0.36664167  0.41507495     0.06500
C856        C  0.96758388  0.37228800  0.39155841    -0.14100
S857        S  0.97704298  0.30645858  0.39387505    -0.31100
H858        H  0.93818475  0.30572485  0.43940997     0.10800
S859        S  0.93638437  0.39008509  0.42102272    -0.28200
H860        H  0.97579417  0.39079126  0.37795793     0.08000
H861        H  0.09186881  0.42090260  0.34495747     0.26400
H862        H  0.96044707  0.28694127  0.41642802     0.21200
H863        H  0.95446614  0.41022125  0.39998369     0.26500
H864        H  0.94485692  0.33194717  0.33567770     0.15400
C865        C  0.02280672  0.39112734  0.13053451    -0.11900
C866        C  0.00111612  0.36549035  0.13815033     0.14600
C867        C  0.00170677  0.35264843  0.16642041     0.01500
C868        C  0.02333297  0.36658223  0.18756688    -0.16300
C869        C  0.04426082  0.39297520  0.18083878    -0.11100
C870        C  0.04449920  0.40495794  0.15142136     0.08300
C871        C  0.97742490  0.35409827  0.11708315     0.09300
S872        S  0.97477359  0.31947480  0.17772111    -0.25400
H873        H  0.02308659  0.35733368  0.21013161     0.19600
S874        S  0.07140216  0.43796189  0.13931011    -0.31100
H875        H  0.02239898  0.40074925  0.10852515     0.09900
C876        C  0.95637825  0.35945692  0.12235950     0.03100
C877        C  0.93660478  0.35253565  0.09887780    -0.13400
C878        C  0.93756275  0.34038601  0.07032775    -0.09100
C879        C  0.95809101  0.33395515  0.06587549     0.06500
C880        C  0.97795034  0.34114597  0.08919294    -0.14100
S881        S  0.95565866  0.37652670  0.15812607    -0.31100
H882        H  0.92073968  0.35724567  0.10234959     0.10800
S883        S  0.96178656  0.31935845  0.02971206    -0.28200
H884        H  0.99449524  0.33750489  0.08512910     0.08000
H885        H  0.09203859  0.43804228  0.15749948     0.26400
H886        H  0.93224149  0.37746353  0.15049903     0.21200
H887        H  0.93729965  0.29484915  0.03431655     0.26500
H888        H  0.96591276  0.30982070  0.14671376     0.15400
C889        C  0.38926013  0.35879352  0.36745894    -0.11900
C890        C  0.36113888  0.34822046  0.36589576     0.14600
C891        C  0.34608487  0.32976547  0.34133538     0.01500
C892        C  0.35956507  0.32305092  0.31849097    -0.16300
C893        C  0.38777226  0.33423743  0.31972260    -0.11100
C894        C  0.40259537  0.35173892  0.34500805     0.08300
C895        C  0.34874062  0.35799828  0.38949956     0.09300
S896        S  0.30983391  0.31444282  0.33759677    -0.25400
H897        H  0.34805300  0.30944250  0.29926111     0.19600
S898        S  0.43856795  0.36568654  0.34993611    -0.31100
H899        H  0.40096889  0.37284433  0.38628260     0.09900
C900        C  0.34888568  0.35283565  0.42229798     0.03100
C901        C  0.34093783  0.36580329  0.44430668    -0.13400
C902        C  0.33237673  0.38352126  0.43427531    -0.09100
C903        C  0.33098805  0.38772528  0.40136761     0.06500
C904        C  0.33905391  0.37482623  0.37934930    -0.14100
S905        S  0.35933859  0.32981599  0.43617804    -0.31100
H906        H  0.34186929  0.36256773  0.46956360     0.10800
S907        S  0.32084622  0.41056897  0.38609268    -0.28200
H908        H  0.33899823  0.37893267  0.35418733     0.08000
H909        H  0.43912078  0.34348639  0.33682659     0.26400
H910        H  0.35336446  0.33039692  0.46853441     0.21200
H911        H  0.33219086  0.42961000  0.41084565     0.26500
H912        H  0.30466990  0.31507621  0.37018946     0.15400
C913        C  0.35437383  0.38475593  0.11921115    -0.11900
C914        C  0.34577268  0.35749229  0.11416200     0.14600
C915        C  0.32883614  0.34386751  0.08791875     0.01500
C916        C  0.32229122  0.35824550  0.06627979    -0.16300
C917        C  0.33202652  0.38593732  0.07045715    -0.11100
C918        C  0.34739875  0.39898797  0.09806054     0.08300
C919        C  0.35632612  0.34471362  0.13589948     0.09300
S920        S  0.31590021  0.30857489  0.08001316    -0.25400
H921        H  0.31035249  0.34793583  0.04539376     0.19600
S922        S  0.35859716  0.43364792  0.10795059    -0.31100
H923        H  0.36696924  0.39514756  0.13966991     0.09900
C924        C  0.37910264  0.34277362  0.12762064     0.03100
C925        C  0.39139477  0.33490940  0.15074493    -0.13400
C926        C  0.38130582  0.32882495  0.18193004    -0.09100
C927        C  0.35763696  0.32940754  0.18965758     0.06500
C928        C  0.34559673  0.33763124  0.16670136    -0.14100
S929        S  0.39369638  0.35220382  0.08831502    -0.31100
H930        H  0.40966661  0.33463110  0.14498576     0.10800
S931        S  0.34388843  0.32308982  0.22930087    -0.28200
H932        H  0.32831234  0.33946908  0.17319189     0.08000
H933        H  0.33546774  0.43310519  0.09562814     0.26400
H934        H  0.41680554  0.35031909  0.09452744     0.21200
H935        H  0.34326555  0.29848879  0.23255222     0.26500
H936        H  0.31679293  0.30099857  0.11157712     0.15400
C937        C  0.23899497  0.46062802  0.40257010    -0.11900
C938        C  0.22189122  0.43679721  0.38598060     0.14600
C939        C  0.22397990  0.41369939  0.39146011     0.01500
C940        C  0.24207940  0.41464062  0.41461027    -0.16300
C941        C  0.25918070  0.43852978  0.43142886    -0.11100
C942        C  0.25751838  0.46187494  0.42503511     0.08300
C943        C  0.20308222  0.43752268  0.36236071     0.09300
S944        S  0.20509394  0.38286814  0.36894251    -0.25400
H945        H  0.24341182  0.39677857  0.41880091     0.19600
S946        S  0.27757865  0.49388556  0.44493900    -0.31100
H947        H  0.23766647  0.47847824  0.39816573     0.09900
C948        C  0.17461898  0.42191321  0.36562322     0.03100
C949        C  0.15805442  0.42375665  0.34229890    -0.13400
C950        C  0.16942422  0.44173582  0.31670146    -0.09100
C951        C  0.19787195  0.45777654  0.31403559     0.06500
C952        C  0.21431839  0.45552511  0.33680424    -0.14100
S953        S  0.15941755  0.40085996  0.40017722    -0.31100
H954        H  0.13622550  0.41165890  0.34429066     0.10800
S955        S  0.21439029  0.48059822  0.28135886    -0.28200
H956        H  0.23616609  0.46772755  0.33440514     0.08000
H957        H  0.27354411  0.48272214  0.47552253     0.26400
H958        H  0.13224640  0.39100724  0.39145139     0.21200
H959        H  0.19716832  0.46217110  0.25823702     0.26500
H960        H  0.20268225  0.39491511  0.34100309     0.15400
C961        C  0.21280538  0.43057136  0.08202655    -0.11900
C962        C  0.21652633  0.42592898  0.11386683     0.14600
C963        C  0.23671099  0.41958326  0.12150087     0.01500
C964        C  0.25378031  0.41980828  0.09745121    -0.16300
C965        C  0.25073976  0.42564401  0.06583248    -0.11100
C966        C  0.22934451  0.43006999  0.05797445     0.08300
C967        C  0.19941720  0.42866351  0.13828981     0.09300
S968        S  0.24202113  0.41145394  0.16133263    -0.25400
H969        H  0.26992492  0.41601464  0.10355568     0.19600
S970        S  0.22163457  0.43445283  0.01761201    -0.31100
H971        H  0.19694849  0.43478262  0.07589410     0.09900
C972        C  0.21027535  0.45053790  0.15972143     0.03100
C973        C  0.19312328  0.45274073  0.18173463    -0.13400
C974        C  0.16502833  0.43394314  0.18239855    -0.09100
C975        C  0.15412091  0.41276899  0.15962836     0.06500
C976        C  0.17144878  0.41014058  0.13837710    -0.14100
S977        S  0.24578831  0.47627934  0.15823720    -0.31100
H978        H  0.20176176  0.46933555  0.19848795     0.10800
S979        S  0.11832595  0.38928242  0.15496523    -0.28200
H980        H  0.16296646  0.39384084  0.12115025     0.08000
H981        H  0.22887808  0.41662950  0.00425698     0.26400
H982        H  0.24534965  0.49235927  0.18317005     0.21200
H983        H  0.11127903  0.40933067  0.15666069     0.26500
H984        H  0.21559392  0.40213292  0.17245503     0.15400
C985        C  0.63092077  0.63012394  0.42170069    -0.11900
C986        C  0.63401038  0.62636768  0.38940185     0.14600
C987        C  0.64752235  0.61254545  0.38054089     0.01500
C988        C  0.65535876  0.60065247  0.40410300    -0.16300
C989        C  0.65024387  0.60259590  0.43629977    -0.11100
C990        C  0.63913787  0.61861731  0.44520993     0.08300
C991        C  0.61933719  0.63332431  0.36588117     0.09300
S992        S  0.65342979  0.60769151  0.33956229    -0.25400
H993        H  0.66406687  0.58854941  0.39716546     0.19600
S994        S  0.63425521  0.62445182  0.48615468    -0.31100
H995        H  0.62089728  0.64101451  0.42859683     0.09900
C996        C  0.59494097  0.61294261  0.35238110     0.03100
C997        C  0.58163138  0.61983819  0.32973046    -0.13400
C998        C  0.59216546  0.64673836  0.31984767    -0.09100
C999        C  0.61646183  0.66722760  0.33395942     0.06500
C1000       C  0.62951602  0.66033398  0.35719733    -0.14100
S1001       S  0.58045840  0.57808275  0.36437691    -0.31100
H1002       H  0.56279171  0.60402739  0.31960283     0.10800
S1003       S  0.63264802  0.70211009  0.32222569    -0.28200
H1004       H  0.64822882  0.67599395  0.36780327     0.08000
H1005       H  0.65611071  0.62250605  0.49811187     0.26400
H1006       H  0.55876502  0.56696948  0.34258876     0.21200
H1007       H  0.62995447  0.69634921  0.28941296     0.26500
H1008       H  0.65358999  0.63054656  0.32750609     0.15400
C1009       C  0.60181386  0.59542419  0.09645517    -0.11900
C1010       C  0.62294642  0.61744555  0.11239381     0.14600
C1011       C  0.65003968  0.62510845  0.10573645     0.01500
C1012       C  0.65533596  0.61024750  0.08354177    -0.16300
C1013       C  0.63413719  0.58811203  0.06739620    -0.11100
C1014       C  0.60699947  0.58110764  0.07363747     0.08300
C1015       C  0.61547263  0.63062343  0.13709051     0.09300
S1016       S  0.67860692  0.65355507  0.12460155    -0.25400
H1017       H  0.67621116  0.61610200  0.07880557     0.19600
S1018       S  0.57795170  0.55521395  0.05247716    -0.31100
H1019       H  0.58097959  0.58956414  0.10159112     0.09900
C1020       C  0.60181112  0.64443695  0.12920688     0.03100
C1021       C  0.59041857  0.65210425  0.15350123    -0.13400
C1022       C  0.59283099  0.64649018  0.18532394    -0.09100
C1023       C  0.60794627  0.63419484  0.19331610     0.06500
C1024       C  0.61894725  0.62617613  0.16907166    -0.14100
S1025       S  0.59808094  0.65141252  0.08819071    -0.31100
H1026       H  0.57864265  0.66144239  0.14771203     0.10800
S1027       S  0.61192709  0.62626302  0.23374420    -0.28200
H1028       H  0.62929576  0.61540094  0.17506547     0.08000
H1029       H  0.58952357  0.56488678  0.02233575     0.26400
H1030       H  0.58513238  0.66614563  0.09434336     0.21200
H1031       H  0.61451591  0.64989338  0.24692512     0.26500
H1032       H  0.66570406  0.66831799  0.13067580     0.15400
C1033       C  0.42568126  0.57978680  0.15381136    -0.11900
C1034       C  0.42924339  0.55939793  0.14073827     0.14600
C1035       C  0.45158101  0.55717657  0.15043005     0.01500
C1036       C  0.47028737  0.57580789  0.17209852    -0.16300
C1037       C  0.46700460  0.59644691  0.18526588    -0.11100
C1038       C  0.44404393  0.59810921  0.17629650     0.08300
C1039       C  0.41031446  0.54165361  0.11568830     0.09300
S1040       S  0.45718439  0.53083724  0.13619920    -0.25400
H1041       H  0.48750996  0.57395898  0.17894205     0.19600
S1042       S  0.43699315  0.62242307  0.19421429    -0.31100
H1043       H  0.40841202  0.58126573  0.14626974     0.09900
C1044       C  0.38350987  0.52122960  0.12270773     0.03100
C1045       C  0.36685132  0.50418482  0.09822610    -0.13400
C1046       C  0.37660532  0.50708072  0.06699415    -0.09100
C1047       C  0.40313239  0.52823002  0.05989491     0.06500
C1048       C  0.41972592  0.54506462  0.08429905    -0.14100
S1049       S  0.37105809  0.51593793  0.16306600    -0.31100
H1050       H  0.34652809  0.48793406  0.10357802     0.10800
S1051       S  0.41669564  0.53525966  0.02006539    -0.28200
H1052       H  0.44017861  0.56103212  0.07880748     0.08000
H1053       H  0.41165652  0.61328237  0.17965096     0.26400
H1054       H  0.34474799  0.49445646  0.15640806     0.21200
H1055       H  0.39205401  0.52878143  0.00535155     0.26500
H1056       H  0.42964119  0.51110046  0.13254588     0.15400
C1057       C  0.39352232  0.53470040  0.39001502    -0.11900
C1058       C  0.42092372  0.54230133  0.39110854     0.14600
C1059       C  0.43006332  0.53102810  0.41432778     0.01500
C1060       C  0.41139574  0.51179970  0.43538036    -0.16300
C1061       C  0.38393952  0.50415524  0.43430542    -0.11100
C1062       C  0.37490644  0.51555135  0.41114801     0.08300
C1063       C  0.43900130  0.56058566  0.36629672     0.09300
S1064       S  0.46514186  0.54035615  0.41836801    -0.25400
H1065       H  0.41846416  0.50327065  0.45332002     0.19600
S1066       S  0.33973575  0.50508665  0.40596065    -0.31100
H1067       H  0.38646543  0.54305435  0.37184383     0.09900
C1068       C  0.44784599  0.55081014  0.34115883     0.03100
C1069       C  0.46527608  0.56887966  0.31823890    -0.13400
C1070       C  0.47359914  0.59636751  0.31971569    -0.09100
C1071       C  0.46452411  0.60607184  0.34476773     0.06500
C1072       C  0.44705878  0.58800005  0.36767030    -0.14100
S1073       S  0.43632608  0.51525827  0.33777800    -0.31100
H1074       H  0.47218186  0.56156950  0.29877186     0.10800
S1075       S  0.47561791  0.64130649  0.34958355    -0.28200
H1076       H  0.44017118  0.59539667  0.38708417     0.08000
H1077       H  0.33058329  0.47755733  0.41060429     0.26400
H1078       H  0.44961001  0.51685729  0.30902674     0.21200
H1079       H  0.50256662  0.65044005  0.34059931     0.26500
H1080       H  0.47630160  0.56668313  0.40633553     0.15400
C1081       C  0.56556730  0.80476025  0.11444856    -0.11900
C1082       C  0.55240216  0.77691603  0.10827534     0.14600
C1083       C  0.53784272  0.76688442  0.07954677     0.01500
C1084       C  0.53586002  0.78453163  0.05835901    -0.16300
C1085       C  0.54847520  0.81234339  0.06466886    -0.11100
C1086       C  0.56361814  0.82252223  0.09314904     0.08300
C1087       C  0.55095258  0.75832226  0.13375144     0.09300
S1088       S  0.52099641  0.73163774  0.06876756    -0.25400
H1089       H  0.52443043  0.77641395  0.03653731     0.19600
S1090       S  0.57920798  0.85744724  0.10486138    -0.31100
H1091       H  0.57635266  0.81251333  0.13673087     0.09900
C1092       C  0.57332751  0.75584569  0.14247783     0.03100
C1093       C  0.57033868  0.73744251  0.16647544    -0.13400
C1094       C  0.54515072  0.72079660  0.18145964    -0.09100
C1095       C  0.52253345  0.72279494  0.17135685     0.06500
C1096       C  0.52593484  0.74188216  0.14849645    -0.14100
S1097       S  0.60537210  0.77542746  0.12229461    -0.31100
H1098       H  0.58776142  0.73605585  0.17351520     0.10800
S1099       S  0.48832600  0.70092133  0.18499795    -0.28200
H1100       H  0.50856885  0.74337565  0.14129528     0.08000
H1101       H  0.55781767  0.86073365  0.09404558     0.26400
H1102       H  0.61839068  0.76293502  0.13656527     0.21200
H1103       H  0.48888211  0.67733814  0.17779874     0.26500
H1104       H  0.53903805  0.72596322  0.08490054     0.15400
C1105       C  0.52594771  0.76731336  0.41129810    -0.11900
C1106       C  0.54411302  0.77908538  0.38594757     0.14600
C1107       C  0.56039368  0.80754527  0.38422841     0.01500
C1108       C  0.55841207  0.82342189  0.40823864    -0.16300
C1109       C  0.53965279  0.81154068  0.43314220    -0.11100
C1110       C  0.52339315  0.78314888  0.43460788     0.08300
C1111       C  0.54434918  0.76078160  0.36131781     0.09300
S1112       S  0.58358453  0.82480017  0.35193014    -0.25400
H1113       H  0.57104305  0.84521316  0.40702815     0.19600
S1114       S  0.50031068  0.76599718  0.46686798    -0.31100
H1115       H  0.51349084  0.74552033  0.41280612     0.09900
C1116       C  0.56565348  0.75536875  0.35865538     0.03100
C1117       C  0.56376473  0.73647382  0.33601666    -0.13400
C1118       C  0.54084555  0.72268238  0.31626570    -0.09100
C1119       C  0.51981402  0.72863422  0.31875937     0.06500
C1120       C  0.52166550  0.74726016  0.34141030    -0.14100
S1121       S  0.59461209  0.77160752  0.38493563    -0.31100
H1122       H  0.57987588  0.73194128  0.33416308     0.10800
S1123       S  0.49062098  0.71414829  0.29288465    -0.28200
H1124       H  0.50533244  0.75149258  0.34337572     0.08000
H1125       H  0.48271497  0.77511591  0.45770707     0.26400
H1126       H  0.60915443  0.76048458  0.37128611     0.21200
H1127       H  0.50552708  0.71678170  0.26518469     0.26500
H1128       H  0.56928838  0.80497915  0.32865087     0.15400
O1129       O  0.57997420  0.67465830  0.79034073    -0.82300
C1130       C  0.48689449  0.61507450  0.71144214     0.97000
O1131       O  0.49904543  0.60615984  0.72784728    -0.71400
O1132       O  0.55059401  0.62740035  0.71600462    -0.75000
Al1133     Al  0.53081910  0.62266488  0.75349975     1.49000
C1134       C  0.57473607  0.64572429  0.71123833     0.92300
O1135       O  0.56363647  0.69744941  0.71201652    -0.81200
O1136       O  0.51976358  0.68323489  0.78829812    -0.74800
Al1137     Al  0.56991898  0.68455095  0.75120722     1.90100
O1138       O  0.52354003  0.69080337  0.72383268    -0.73900
O1139       O  0.48563334  0.63153291  0.78051557    -0.73700
O1140       O  0.49175121  0.63878248  0.71559846    -0.79400
O1141       O  0.51046898  0.61354362  0.79125673    -0.77600
O1142       O  0.53610028  0.65595873  0.75228633    -1.13700
O1143       O  0.56121415  0.63165170  0.77934661    -0.72900
C1144       C  0.57743460  0.65186741  0.79573802     0.97800
C1145       C  0.54428292  0.70145211  0.70631170     0.94200
Al1146     Al  0.50769172  0.66070090  0.75212126     1.55600
O1147       O  0.58521347  0.66770433  0.72634123    -0.77500
C1148       C  0.49008631  0.61570532  0.79666803     0.98400
C1149       C  0.54224640  0.70475856  0.79118011     0.93200
O1150       O  0.56258411  0.70827860  0.77557961    -0.82900
O1151       O  0.30285435  0.39579699  0.96152574    -0.82300
C1152       C  0.36160281  0.48818199  0.54358864     0.97000
O1153       O  0.37153786  0.47691371  0.52731567    -0.71400
O1154       O  0.34699738  0.42533636  0.54081824    -0.75000
Al1155     Al  0.35321309  0.44391378  0.00055457     1.49000
C1156       C  0.32771251  0.40158154  0.54523117     0.92300
O1157       O  0.27722274  0.41306797  0.53515139    -0.81200
O1158       O  0.29526407  0.45682131  0.96303862    -0.74800
Al1159     Al  0.29302083  0.40757187  0.49832102     1.90100
O1160       O  0.28600933  0.45398430  0.52399952    -0.73900
O1161       O  0.34623933  0.48960085  0.97470872    -0.73700
O1162       O  0.33766900  0.48277712  0.53884299    -0.79400
O1163       O  0.36254021  0.46356107  0.96208822    -0.77600
O1164       O  0.31978352  0.43862299  0.00026746    -1.13700
O1165       O  0.34521443  0.41278445  0.97577800    -0.72900
C1166       C  0.32559221  0.39767977  0.95779688     0.97800
C1167       C  0.27286449  0.43221206  0.53938024     0.94200
Al1168     Al  0.31531009  0.46698687  0.00085399     1.55600
O1169       O  0.30742833  0.39114650  0.52656375    -0.77500
C1170       C  0.36116717  0.48447768  0.95751095     0.98400
C1171       C  0.27388990  0.43482042  0.95759690     0.93200
O1172       O  0.26902889  0.41361327  0.97239101    -0.82900
O1173       O  0.08286166  0.40592639  0.78576549    -0.82300
C1174       C  0.12250178  0.49779198  0.70407401     0.97000
O1175       O  0.10120044  0.48691681  0.72061143    -0.71400
O1176       O  0.07086690  0.43566475  0.70772071    -0.75000
Al1177     Al  0.08384071  0.45480455  0.74589022     1.49000
C1178       C  0.06546047  0.41190480  0.70254329     0.92300
O1179       O  0.12624539  0.41963877  0.71203499    -0.81200
O1180       O  0.15544663  0.46641546  0.78475746    -0.74800
Al1181     Al  0.10507683  0.41517341  0.74868510     1.90100
O1182       O  0.15996672  0.46060590  0.72064934    -0.73900
O1183       O  0.13782704  0.49987520  0.77349382    -0.73700
O1184       O  0.14045083  0.49178276  0.70883287    -0.79400
O1185       O  0.09431194  0.47470649  0.78379835    -0.77600
O1186       O  0.11158744  0.44904333  0.74733062    -1.13700
O1187       O  0.05924668  0.42411471  0.77083307    -0.72900
C1188       C  0.06227168  0.40824700  0.78874692     0.97800
C1189       C  0.14969213  0.43867855  0.70536671     0.94200
Al1190     Al  0.14548135  0.47719235  0.74703709     1.55600
O1191       O  0.07445222  0.40062247  0.72054042    -0.77500
C1192       C  0.11712455  0.49523053  0.78939436     0.98400
C1193       C  0.15187400  0.44346003  0.79122821     0.93200
O1194       O  0.13434879  0.42267302  0.77664344    -0.82900
O1195       O  0.57626935  0.89719411  0.96230347    -0.82300
C1196       C  0.48532834  0.85746491  0.54990055     0.97000
O1197       O  0.49758994  0.87966239  0.53552388    -0.71400
O1198       O  0.54939134  0.90934431  0.54508325    -0.75000
Al1199     Al  0.52798435  0.89595579  0.00507777     1.49000
C1200       C  0.57359554  0.91506910  0.54776355     0.92300
O1201       O  0.56383305  0.85317617  0.53643246    -0.81200
O1202       O  0.51640371  0.82549510  0.96259843    -0.74800
Al1203     Al  0.56730993  0.87502551  0.50060328     1.90100
O1204       O  0.52186447  0.82024816  0.52925010    -0.73900
O1205       O  0.48241400  0.84176027  0.97512223    -0.73700
O1206       O  0.48945020  0.83870986  0.54230222    -0.79400
O1207       O  0.50507008  0.88573185  0.96952058    -0.77600
O1208       O  0.53374470  0.86828023  0.00156913    -1.13700
O1209       O  0.55652820  0.91958347  0.97687941    -0.72900
C1210       C  0.57212039  0.91652402  0.95842423     0.97800
C1211       C  0.54461605  0.82972253  0.54286439     0.94200
Al1212     Al  0.50552947  0.83427158  0.00092195     1.55600
O1213       O  0.58345223  0.90533141  0.52885785    -0.77500
C1214       C  0.48558532  0.86290579  0.96199753     0.98400
C1215       C  0.53931722  0.82907406  0.95561605     0.93200
O1216       O  0.56022611  0.84602336  0.97045548    -0.82900
O1217       O  0.90005268  0.31440602  0.96213954    -0.82300
C1218       C  0.85781181  0.36041779  0.54822240     0.97000
O1219       O  0.87926339  0.37205532  0.53190218    -0.71400
O1220       O  0.91095163  0.35275913  0.54173259    -0.75000
Al1221     Al  0.89760828  0.36069221  0.00414120     1.49000
C1222       C  0.91738098  0.33499312  0.54475646     0.92300
O1223       O  0.85509002  0.28093480  0.53646810    -0.81200
O1224       O  0.82931377  0.30053293  0.96148758    -0.74800
Al1225     Al  0.87618913  0.29846932  0.49972649     1.90100
O1226       O  0.82063881  0.28600467  0.52520613    -0.73900
O1227       O  0.84303907  0.35008932  0.97733764    -0.73700
O1228       O  0.83975297  0.33641552  0.54204185    -0.79400
O1229       O  0.88653722  0.37085751  0.96705267    -0.77600
O1230       O  0.87082924  0.32652651  0.00151422    -1.13700
O1231       O  0.92244081  0.35668158  0.97728422    -0.72900
C1232       C  0.91942816  0.33830681  0.95832754     0.97800
C1233       C  0.83063652  0.27428450  0.54047684     0.94200
Al1234     Al  0.83651138  0.31884032  0.00093452     1.55600
O1235       O  0.90722511  0.31447593  0.52698440    -0.77500
C1236       C  0.86344836  0.36775529  0.96229272     0.98400
C1237       C  0.83307833  0.28121603  0.95558177     0.93200
O1238       O  0.84919788  0.27743752  0.97214267    -0.82900
O1239       O  0.67368352  0.08046369  0.78764662    -0.82300
C1240       C  0.62269382  0.12185836  0.70888913     0.97000
O1241       O  0.61128230  0.10014326  0.72461350    -0.71400
O1242       O  0.63080722  0.06929645  0.71042610    -0.75000
Al1243     Al  0.62508103  0.08166867  0.74912637     1.49000
C1244       C  0.64860159  0.06324746  0.70481026     0.92300
O1245       O  0.70215635  0.12404137  0.71388787    -0.81200
O1246       O  0.68477239  0.14955079  0.79140172    -0.74800
Al1247     Al  0.68644579  0.10268959  0.75068728     1.90100
O1248       O  0.69804494  0.15838608  0.72807739    -0.73900
O1249       O  0.63458061  0.13458774  0.77798136    -0.73700
O1250       O  0.64704863  0.13947812  0.71422317    -0.79400
O1251       O  0.61561735  0.09128688  0.78785421    -0.77600
O1252       O  0.65907428  0.10901347  0.75089288    -1.13700
O1253       O  0.63101481  0.05685027  0.77312802    -0.72900
C1254       C  0.65025018  0.06012386  0.79089089     0.97800
C1255       C  0.70786914  0.14807349  0.70993327     0.94200
Al1256     Al  0.66563681  0.14269056  0.75282261     1.55600
O1257       O  0.66939258  0.07217183  0.72237635    -0.77500
C1258       C  0.61777442  0.11382529  0.79320131     0.98400
C1259       C  0.70508178  0.14707113  0.79635930     0.93200
O1260       O  0.70942104  0.13194174  0.77867057    -0.82900
O1261       O  0.89566894  0.58083351  0.78663758    -0.82300
C1262       C  0.85322002  0.48391108  0.71413595     0.97000
O1263       O  0.87458552  0.49533932  0.73054450    -0.71400
O1264       O  0.90542193  0.54545774  0.71198016    -0.75000
Al1265     Al  0.89300343  0.52919037  0.75207135     1.49000
C1266       C  0.91207526  0.56937698  0.70514854     0.92300
O1267       O  0.85125234  0.56296105  0.71270400    -0.81200
O1268       O  0.82348687  0.52132950  0.79000524    -0.74800
Al1269     Al  0.87285924  0.56962703  0.74975893     1.90100
O1270       O  0.81681518  0.52338967  0.72592533    -0.73900
O1271       O  0.83954834  0.48683918  0.78232110    -0.73700
O1272       O  0.83575274  0.49089003  0.71673665    -0.79400
O1273       O  0.88306900  0.51243294  0.79216798    -0.77600
O1274       O  0.86578591  0.53566260  0.75181410    -1.13700
O1275       O  0.91836398  0.56121359  0.77380477    -0.72900
C1276       C  0.91631594  0.57856069  0.78980498     0.97800
C1277       C  0.82712995  0.54415012  0.70860388     0.94200
Al1278     Al  0.83180218  0.50799385  0.75355097     1.55600
O1279       O  0.90332689  0.58191818  0.72135465    -0.77500
C1280       C  0.86010534  0.49277618  0.79934994     0.98400
C1281       C  0.82674874  0.54444702  0.79405483     0.93200
O1282       O  0.84377414  0.56427198  0.77758402    -0.82900
O1283       O  0.40576243  0.08642715  0.96128967    -0.82300
C1284       C  0.49469555  0.12015571  0.54475002     0.97000
O1285       O  0.48381110  0.09961133  0.52718006    -0.71400
O1286       O  0.43196562  0.07035115  0.53699427    -0.75000
Al1287     Al  0.45359854  0.08520438  0.00160801     1.49000
C1288       C  0.40792618  0.06483362  0.54077178     0.92300
O1289       O  0.41916903  0.12706571  0.53605699    -0.81200
O1290       O  0.46691801  0.15815110  0.96497623    -0.74800
Al1291     Al  0.41464519  0.10745942  0.49757075     1.90100
O1292       O  0.46053602  0.16049128  0.52805261    -0.73900
O1293       O  0.49955380  0.13936575  0.97465200    -0.73700
O1294       O  0.49044787  0.13921884  0.53959989    -0.79400
O1295       O  0.47465449  0.09590398  0.96436484    -0.77600
O1296       O  0.44860851  0.11335034  0.00079212    -1.13700
O1297       O  0.42341382  0.06212795  0.97551019    -0.72900
C1298       C  0.40812845  0.06598218  0.95748469     0.97800
C1299       C  0.43868065  0.15009327  0.54364227     0.94200
Al1300     Al  0.47735014  0.14690286  0.00198574     1.55600
O1301       O  0.39774144  0.07518212  0.52318347    -0.77500
C1302       C  0.49536091  0.11867116  0.95932706     0.98400
C1303       C  0.44409328  0.15509969  0.95829045     0.93200
O1304       O  0.42302997  0.13774852  0.97264846    -0.82900
O1305       O  0.67445931  0.58585377  0.96589706    -0.82300
C1306       C  0.61249452  0.48786741  0.53302648     0.97000
O1307       O  0.60376126  0.49994353  0.51605438    -0.71400
O1308       O  0.62337460  0.55000293  0.53465640    -0.75000
Al1309     Al  0.62065898  0.53452535  0.99587060     1.49000
C1310       C  0.64094680  0.57379434  0.54230172     0.92300
O1311       O  0.69555693  0.56544975  0.54083676    -0.81200
O1312       O  0.68159491  0.52576464  0.95954350    -0.74800
Al1313     Al  0.68314861  0.57361666  0.50278317     1.90100
O1314       O  0.68977636  0.52632908  0.52602223    -0.73900
O1315       O  0.62951226  0.49164400  0.96511612    -0.73700
O1316       O  0.63705106  0.49437983  0.53144111    -0.79400
O1317       O  0.61434053  0.51899153  0.95497012    -0.77600
O1318       O  0.65381088  0.53939408  0.99809929    -1.13700
O1319       O  0.63096476  0.56795482  0.97512054    -0.72900
C1320       C  0.65227343  0.58483633  0.96079231     0.97800
C1321       C  0.70013093  0.54638171  0.54457518     0.94200
Al1322     Al  0.65830939  0.51113800  0.99496492     1.55600
O1323       O  0.66405992  0.58568037  0.52923612    -0.77500
C1324       C  0.61570302  0.49842255  0.94820459     0.98400
C1325       C  0.70303159  0.54849452  0.95881301     0.93200
O1326       O  0.70682422  0.56702325  0.97794274    -0.82900
O1327       O  0.39895411  0.30923488  0.78747706    -0.82300
C1328       C  0.48735085  0.36002923  0.70022691     0.97000
O1329       O  0.47548028  0.37003790  0.71501346    -0.71400
O1330       O  0.42300314  0.34461734  0.70372833    -0.75000
Al1331     Al  0.44412938  0.35530089  0.74135666     1.49000
C1332       C  0.39858057  0.32576227  0.70251936     0.92300
O1333       O  0.41091094  0.27568481  0.71587087    -0.81200
O1334       O  0.46087905  0.30160235  0.78696746    -0.74800
Al1335     Al  0.40690862  0.29408563  0.75129693     1.90100
O1336       O  0.45292101  0.28592470  0.72444253    -0.73900
O1337       O  0.49167219  0.35206414  0.77011416    -0.73700
O1338       O  0.48235676  0.33658034  0.70674906    -0.79400
O1339       O  0.46572681  0.36915263  0.77836888    -0.77600
O1340       O  0.44016406  0.32277462  0.74659858    -1.13700
O1341       O  0.41380651  0.34900567  0.76671659    -0.72900
C1342       C  0.40020113  0.33179956  0.78774407     0.97800
C1343       C  0.43053389  0.27216754  0.71019451     0.94200
Al1344     Al  0.46937444  0.31930285  0.74704487     1.55600
O1345       O  0.38940794  0.30660910  0.72241613    -0.77500
C1346       C  0.48711812  0.36871570  0.78426806     0.98400
C1347       C  0.43875593  0.28143826  0.79551030     0.93200
O1348       O  0.41701366  0.27527972  0.78102760    -0.82900
O1349       O  0.07758453  0.67259965  0.96551267    -0.82300
C1350       C  0.12286062  0.62234296  0.53617515     0.97000
O1351       O  0.10088819  0.61127106  0.52075909    -0.71400
O1352       O  0.06793452  0.62830742  0.53741900    -0.75000
Al1353     Al  0.08082225  0.62372717  0.99933407     1.49000
C1354       C  0.06113305  0.64539589  0.54425975     0.92300
O1355       O  0.12233104  0.70097847  0.53767565    -0.81200
O1356       O  0.14885128  0.68635278  0.96010454    -0.74800
Al1357     Al  0.10066069  0.68583071  0.50053240     1.90100
O1358       O  0.15732813  0.69813629  0.52277632    -0.73900
O1359       O  0.13451114  0.63604287  0.96968065    -0.73700
O1360       O  0.14010687  0.64693383  0.53212717    -0.79400
O1361       O  0.09126521  0.61716985  0.95934229    -0.77600
O1362       O  0.10772995  0.65797641  0.99965653    -1.13700
O1363       O  0.05540408  0.62961899  0.97679121    -0.72900
C1364       C  0.05782436  0.64916124  0.96059620     0.97800
C1365       C  0.14662608  0.70702269  0.54164243     0.94200
Al1366     Al  0.14187896  0.66540375  0.99732254     1.55600
O1367       O  0.07046804  0.66699053  0.52856145    -0.77500
C1368       C  0.11431252  0.62081218  0.95255586     0.98400
C1369       C  0.14428071  0.70531512  0.95562210     0.93200
O1370       O  0.12884969  0.70862122  0.97412635    -0.82900
O1371       O  0.30679404  0.90320883  0.78549950    -0.82300
C1372       C  0.35751722  0.85678073  0.71420200     0.97000
O1373       O  0.36865476  0.87896467  0.72891506    -0.71400
O1374       O  0.35081347  0.91054519  0.71021258    -0.75000
Al1375     Al  0.35493861  0.89873111  0.75057215     1.49000
C1376       C  0.33427623  0.91814291  0.70350816     0.92300
O1377       O  0.27845366  0.85837579  0.71242313    -0.81200
O1378       O  0.29105565  0.83193870  0.79195118    -0.74800
Al1379     Al  0.29413769  0.88025214  0.74897391     1.90100
O1380       O  0.28139990  0.82354598  0.72786560    -0.73900
O1381       O  0.34196172  0.84573420  0.78348770    -0.73700
O1382       O  0.33273016  0.83987312  0.71836166    -0.79400
O1383       O  0.36266240  0.88955951  0.79078351    -0.77600
O1384       O  0.32042224  0.87228622  0.75162242    -1.13700
O1385       O  0.34967813  0.92499015  0.77209146    -0.72900
C1386       C  0.33039840  0.92340035  0.78829628     0.97800
C1387       C  0.27180648  0.83397187  0.70944516     0.94200
Al1388     Al  0.31241290  0.83816665  0.75514986     1.55600
O1389       O  0.31321674  0.91015819  0.72019869    -0.77500
C1390       C  0.35883154  0.86671361  0.79855943     0.98400
C1391       C  0.27123875  0.83555539  0.79463949     0.93200
O1392       O  0.26917519  0.85203656  0.77675358    -0.82900
C1393       C  0.18221512  0.73761825  0.87902965    -0.11900
C1394       C  0.19036012  0.76471300  0.88455094     0.14600
C1395       C  0.18090075  0.77170147  0.91176174     0.01500
C1396       C  0.16501470  0.75169937  0.93392786    -0.16300
C1397       C  0.15805930  0.72471200  0.92939435    -0.11100
C1398       C  0.16583901  0.71749612  0.90079921     0.08300
C1399       C  0.21097835  0.78523419  0.86320774     0.09300
S1400       S  0.18964667  0.80589019  0.92047098    -0.25400
H1401       H  0.15888268  0.75749554  0.95547256     0.19600
S1402       S  0.15547905  0.68316029  0.89035840    -0.31100
H1403       H  0.18915132  0.73220062  0.85783627     0.09900
C1404       C  0.23876380  0.79653714  0.86982219     0.03100
C1405       C  0.25792798  0.81377190  0.84755758    -0.13400
C1406       C  0.24997182  0.81957350  0.81842867    -0.09100
C1407       C  0.22194943  0.80845027  0.81213662     0.06500
C1408       C  0.20281877  0.79162304  0.83471424    -0.14100
S1409       S  0.24977601  0.78804076  0.90605425    -0.31100
H1410       H  0.27922523  0.82246747  0.85268874     0.10800
S1411       S  0.20910017  0.81309151  0.77499076    -0.28200
H1412       H  0.18138534  0.78256288  0.82952731     0.08000
H1413       H  0.12956062  0.67169024  0.90409868     0.26400
H1414       H  0.27781315  0.80388151  0.90033268     0.21200
H1415       H  0.22707173  0.80927403  0.75615207     0.26500
H1416       H  0.19360339  0.81495528  0.88881971     0.15400
C1417       C  0.20193137  0.74424609  0.60389035    -0.11900
C1418       C  0.19477832  0.76230274  0.61626821     0.14600
C1419       C  0.17133827  0.76170763  0.60480417     0.01500
C1420       C  0.15590078  0.74340234  0.58069142    -0.16300
C1421       C  0.16305229  0.72522780  0.56808069    -0.11100
C1422       C  0.18622670  0.72550387  0.58055327     0.08300
C1423       C  0.21252938  0.78132599  0.64107878     0.09300
S1424       S  0.16012366  0.78370781  0.61988873    -0.25400
H1425       H  0.13823363  0.74348744  0.57162779     0.19600
S1426       S  0.19625771  0.70167720  0.56937226    -0.31100
H1427       H  0.21974173  0.74444369  0.61302313     0.09900
C1428       C  0.21369840  0.77200003  0.67166507     0.03100
C1429       C  0.23332365  0.78967986  0.69328117    -0.13400
C1430       C  0.25169079  0.81668845  0.68519405    -0.09100
C1431       C  0.25015114  0.82611781  0.65459982     0.06500
C1432       C  0.23044944  0.80837208  0.63298802    -0.14100
S1433       S  0.19006019  0.73755064  0.68319985    -0.31100
H1434       H  0.23434473  0.78240395  0.71670290     0.10800
S1435       S  0.27375845  0.85981024  0.64089065    -0.28200
H1436       H  0.22979517  0.81536605  0.60923487     0.08000
H1437       H  0.17013688  0.67963394  0.57461905     0.26400
H1438       H  0.19949731  0.73954486  0.71458661     0.21200
H1439       H  0.29658403  0.86140275  0.65567704     0.26500
H1440       H  0.17070999  0.78638835  0.65075511     0.15400
C1441       C  0.57570177  0.47235839  0.87147754    -0.11900
C1442       C  0.56177828  0.44445352  0.87727692     0.14600
C1443       C  0.56706483  0.43461101  0.90550030     0.01500
C1444       C  0.58589498  0.45276425  0.92727423    -0.16300
C1445       C  0.59917267  0.48069269  0.92204819    -0.11100
C1446       C  0.59438141  0.49059524  0.89351405     0.08300
C1447       C  0.54298100  0.42593649  0.85280884     0.09300
S1448       S  0.54990356  0.39924290  0.91570292    -0.25400
H1449       H  0.58927606  0.44501802  0.94924204     0.19600
S1450       S  0.61202952  0.52598444  0.88335596    -0.31100
H1451       H  0.57220689  0.47991883  0.84944541     0.09900
C1452       C  0.51893694  0.42552245  0.84475199     0.03100
C1453       C  0.50144760  0.40695166  0.82205206    -0.13400
C1454       C  0.50717450  0.38838109  0.80740359    -0.09100
C1455       C  0.53167385  0.38923191  0.81559634     0.06500
C1456       C  0.54916092  0.40799584  0.83795051    -0.14100
S1457       S  0.50977550  0.44764589  0.86449685    -0.31100
H1458       H  0.48298264  0.40671951  0.81612626     0.10800
S1459       S  0.54193373  0.36676477  0.79961007    -0.28200
H1460       H  0.56777200  0.40846977  0.84414399     0.08000
H1461       H  0.63646487  0.53237784  0.89864142     0.26400
H1462       H  0.48613029  0.44015820  0.84675615     0.21200
H1463       H  0.54297512  0.37545441  0.76810595     0.26500
H1464       H  0.52520354  0.39229869  0.90078471     0.15400
C1465       C  0.57886407  0.42555251  0.58653348    -0.11900
C1466       C  0.55745738  0.42766487  0.59942711     0.14600
C1467       C  0.55357657  0.44883310  0.58917937     0.01500
C1468       C  0.57175965  0.46798077  0.56759540    -0.16300
C1469       C  0.59353921  0.46625714  0.55501548    -0.11100
C1470       C  0.59646592  0.44413860  0.56394315     0.08300
C1471       C  0.54087382  0.40911000  0.62541879     0.09300
S1472       S  0.52585813  0.45260128  0.60289324    -0.25400
H1473       H  0.56891187  0.48452028  0.56073067     0.19600
S1474       S  0.62128663  0.43767452  0.54645750    -0.31100
H1475       H  0.58183365  0.40924046  0.59408850     0.09900
C1476       C  0.52306400  0.38118553  0.62052724     0.03100
C1477       C  0.50662424  0.36510376  0.64577456    -0.13400
C1478       C  0.50748639  0.37651948  0.67561493    -0.09100
C1479       C  0.52630134  0.40427496  0.68066136     0.06500
C1480       C  0.54259947  0.42013968  0.65563086    -0.14100
S1481       S  0.52005566  0.36637900  0.58174853    -0.31100
H1482       H  0.49223525  0.34387482  0.64192335     0.10800
S1483       S  0.53083710  0.42074029  0.71857999    -0.28200
H1484       H  0.55666086  0.44145825  0.65963954     0.08000
H1485       H  0.61785804  0.44463893  0.51540480     0.26400
H1486       H  0.49975622  0.33997826  0.58985697     0.21200
H1487       H  0.52667727  0.39841078  0.73649661     0.26500
H1488       H  0.50740494  0.42488253  0.60716926     0.15400
C1489       C  0.35469869  0.01842088  0.89757921    -0.11900
C1490       C  0.36803031  0.00600494  0.88410849     0.14600
C1491       C  0.39448281  0.01384341  0.89447482     0.01500
C1492       C  0.40699055  0.03382769  0.91773085    -0.16300
C1493       C  0.39367359  0.04609084  0.93169817    -0.11100
C1494       C  0.36706102  0.03807857  0.92152435     0.08300
C1495       C  0.35453226  0.98545530  0.85872057     0.09300
S1496       S  0.41345973  0.99912079  0.87908371    -0.25400
H1497       H  0.42738693  0.03970347  0.92522267     0.19600
S1498       S  0.34736451  0.05105423  0.93914425    -0.31100
H1499       H  0.33435830  0.01240947  0.88974950     0.09900
C1500       C  0.33407236  0.95871128  0.86565069     0.03100
C1501       C  0.32507704  0.93892319  0.84165100    -0.13400
C1502       C  0.33618311  0.94543681  0.81091053    -0.09100
C1503       C  0.35505844  0.97272431  0.80352994     0.06500
C1504       C  0.36424285  0.99227991  0.82752123    -0.14100
S1505       S  0.32097838  0.94937095  0.90557972    -0.31100
H1506       H  0.31055342  0.91807493  0.84730847     0.10800
S1507       S  0.36820786  0.98389595  0.76395864    -0.28200
H1508       H  0.37959348  0.01292467  0.82202371     0.08000
H1509       H  0.35537700  0.05007097  0.97055755     0.26400
H1510       H  0.30093036  0.92258383  0.89852232     0.21200
H1511       H  0.34433440  0.96487728  0.74819785     0.26500
H1512       H  0.39105388  0.97329112  0.87316554     0.15400
C1513       C  0.38825610  0.02686730  0.61811440    -0.11900
C1514       C  0.36752152  0.00140519  0.60785042     0.14600
C1515       C  0.35752271  0.99826792  0.57641948     0.01500
C1516       C  0.36942505  0.02030080  0.55557786    -0.16300
C1517       C  0.39156404  0.04509480  0.56526774    -0.11100
C1518       C  0.40043241  0.04868197  0.59715550     0.08300
C1519       C  0.35797536  0.97849796  0.63019182     0.09300
S1520       S  0.33101293  0.96643659  0.56085191    -0.25400
H1521       H  0.36272752  0.01750676  0.53099512     0.19600
S1522       S  0.42766931  0.08038888  0.61217816    -0.31100
H1523       H  0.39561022  0.02948912  0.64240188     0.09900
C1524       C  0.37531046  0.96914778  0.63970994     0.03100
C1525       C  0.36664293  0.94903524  0.66293400    -0.13400
C1526       C  0.34084675  0.93777155  0.67706255    -0.09100
C1527       C  0.32306113  0.94649885  0.66623817     0.06500
C1528       C  0.33184074  0.96668644  0.64299971    -0.14100
S1529       S  0.40855451  0.98275522  0.62213092    -0.31100
H1530       H  0.38042937  0.94249478  0.67051834     0.10800
S1531       S  0.28902524  0.93292616  0.68075919    -0.28200
H1532       H  0.31841944  0.97370136  0.63533415     0.08000
H1533       H  0.42436668  0.09690146  0.59015860     0.26400
H1534       H  0.41571472  0.96567862  0.63779115     0.21200
H1535       H  0.29790932  0.94408237  0.71129475     0.26500
H1536       H  0.33763486  0.95003146  0.57889422     0.15400
C1537       C  0.41459810  0.22887514  0.63557332    -0.11900
C1538       C  0.42634416  0.21330882  0.64336201     0.14600
C1539       C  0.43814838  0.21642920  0.67382544     0.01500
C1540       C  0.43904305  0.23564536  0.69496056    -0.16300
C1541       C  0.42773668  0.25152882  0.68701315    -0.11100
C1542       C  0.41517766  0.24790020  0.65697046     0.08300
C1543       C  0.42874997  0.19632931  0.61827742     0.09300
S1544       S  0.45244197  0.19653184  0.68726098    -0.25400
H1545       H  0.44851705  0.23808518  0.71804710     0.19600
S1546       S  0.40126662  0.26814794  0.64366559    -0.31100
H1547       H  0.40593275  0.22701131  0.61210524     0.09900
C1548       C  0.40593724  0.17429255  0.60386921     0.03100
C1549       C  0.40966343  0.15930810  0.57997595    -0.13400
C1550       C  0.43578198  0.16551827  0.57044583    -0.09100
C1551       C  0.45850451  0.18696864  0.58616975     0.06500
C1552       C  0.45473703  0.20245575  0.60894237    -0.14100
S1553       S  0.37209541  0.16477318  0.61645178    -0.31100
H1554       H  0.39211487  0.14282593  0.56847505     0.10800
S1555       S  0.49282362  0.19467384  0.58016262    -0.28200
H1556       H  0.47234938  0.21912860  0.62020522     0.08000
H1557       H  0.42177617  0.29240870  0.65721044     0.26400
H1558       H  0.35821108  0.14193780  0.59674643     0.21200
H1559       H  0.48579796  0.16760822  0.58399218     0.26500
H1560       H  0.43539392  0.17355368  0.66893366     0.15400
C1561       C  0.42122916  0.18178238  0.88919766    -0.11900
C1562       C  0.43957264  0.20965470  0.89175988     0.14600
C1563       C  0.45908771  0.21930705  0.91646017     0.01500
C1564       C  0.46043667  0.20096347  0.93715772    -0.16300
C1565       C  0.44231234  0.17307633  0.93445634    -0.11100
C1566       C  0.42252282  0.16342551  0.91006596     0.08300
C1567       C  0.43925457  0.22794386  0.86701531     0.09300
S1568       S  0.48295399  0.25473623  0.92283694    -0.25400
H1569       H  0.47545496  0.20859368  0.95603834     0.19600
S1570       S  0.39954539  0.12794148  0.90317994    -0.31100
H1571       H  0.40642617  0.17421775  0.87009652     0.09900
C1572       C  0.45963685  0.23942638  0.84358699     0.03100
C1573       C  0.45937362  0.25746766  0.82132135    -0.13400
C1574       C  0.43879834  0.26392277  0.82141105    -0.09100
C1575       C  0.41827563  0.25223246  0.84484287     0.06500
C1576       C  0.41860879  0.23425634  0.86718328    -0.14100
S1577       S  0.48538814  0.23022280  0.84126337    -0.31100
H1578       H  0.47483738  0.26598849  0.80308042     0.10800
S1579       S  0.39184962  0.26029221  0.84827479    -0.28200
H1580       H  0.40298748  0.22555243  0.88525770     0.08000
H1581       H  0.41849206  0.12016586  0.91087644     0.26400
H1582       H  0.49965133  0.24690884  0.81535974     0.21200
H1583       H  0.40857362  0.28764249  0.84012096     0.26500
H1584       H  0.46719460  0.26446979  0.90917129     0.15400
C1585       C  0.02090413  0.65352966  0.88679337    -0.11900
C1586       C  0.99605980  0.62916077  0.88915526     0.14600
C1587       C  0.99154602  0.61200579  0.91529930     0.01500
C1588       C  0.01153602  0.61978980  0.93869300    -0.16300
C1589       C  0.03685836  0.64378405  0.93606551    -0.11100
C1590       C  0.04148911  0.66077753  0.90948711     0.08300
C1591       C  0.97663449  0.62042819  0.86222859     0.09300
S1592       S  0.96132766  0.57922311  0.91937357    -0.25400
H1593       H  0.00751544  0.60633853  0.95864818     0.19600
S1594       S  0.07368142  0.69073064  0.90159333    -0.31100
H1595       H  0.02474837  0.66638159  0.86625499     0.09900
C1596       C  0.95079897  0.61763426  0.86496305     0.03100
C1597       C  0.93176257  0.60511620  0.84027907    -0.13400
C1598       C  0.93819195  0.59557909  0.81278532    -0.09100
C1599       C  0.96501256  0.60060970  0.80922016     0.06500
C1600       C  0.98364100  0.61257057  0.83403772    -0.14100
S1601       S  0.94192800  0.62943052  0.90014215    -0.31100
H1602       H  0.91148017  0.60172926  0.84301791     0.10800
S1603       S  0.97709202  0.59244779  0.77374381    -0.28200
H1604       H  0.00367615  0.61518483  0.83167412     0.08000
H1605       H  0.08875983  0.67798301  0.90685861     0.26400
H1606       H  0.91609806  0.62341412  0.88969275     0.21200
H1607       H  0.96292057  0.59992737  0.75274696     0.26500
H1608       H  0.95817926  0.57273088  0.88679399     0.15400
C1609       C  0.00302635  0.64031520  0.59382908    -0.11900
C1610       C  0.00039740  0.62161462  0.61691707     0.14600
C1611       C  0.01926457  0.61278618  0.61778480     0.01500
C1612       C  0.03931671  0.62155357  0.59441101    -0.16300
C1613       C  0.04148769  0.63952612  0.57037666    -0.11100
C1614       C  0.02349728  0.64964831  0.57085878     0.08300
C1615       C  0.97638067  0.60964973  0.63784170     0.09300
S1616       S  0.01827664  0.58965042  0.64747037    -0.25400
H1617       H  0.05316900  0.61396633  0.59481581     0.19600
S1618       S  0.02395498  0.67265578  0.54149934    -0.31100
H1619       H  0.98852294  0.64709933  0.59317576     0.09900
C1620       C  0.97453455  0.62376549  0.66413530     0.03100
C1621       C  0.95228385  0.61063212  0.68468873    -0.13400
C1622       C  0.93214422  0.58352476  0.67971071    -0.09100
C1623       C  0.93332076  0.56990079  0.65233123     0.06500
C1624       C  0.95548618  0.58315685  0.63170797    -0.14100
S1625       S  0.00133281  0.65783591  0.67261409    -0.31100
H1626       H  0.95128307  0.62106540  0.70560794     0.10800
S1627       S  0.90659331  0.53585056  0.64319866    -0.28200
H1628       H  0.95696327  0.57274027  0.61104926     0.08000
H1629       H  0.05004888  0.69343840  0.55037776     0.26400
H1630       H  0.99092157  0.66058796  0.70175995     0.21200
H1631       H  0.91720157  0.53335659  0.61407733     0.26500
H1632       H  0.00641579  0.59708030  0.67165297     0.15400
C1633       C  0.73205539  0.52632338  0.61016887    -0.11900
C1634       C  0.75685004  0.55034172  0.61476219     0.14600
C1635       C  0.76261616  0.57337641  0.59671100     0.01500
C1636       C  0.74354389  0.57178270  0.57447458    -0.16300
C1637       C  0.71861281  0.54774049  0.57009562    -0.11100
C1638       C  0.71280927  0.52491309  0.58858064     0.08300
C1639       C  0.77578532  0.55047507  0.63899208     0.09300
S1640       S  0.79382518  0.60524103  0.60090420    -0.25400
H1641       H  0.74833987  0.58934154  0.56019312     0.19600
S1642       S  0.68070723  0.49379891  0.58689254    -0.31100
H1643       H  0.72742471  0.50863499  0.62410436     0.09900
C1644       C  0.76903606  0.54744729  0.67160442     0.03100
C1645       C  0.78623961  0.54542768  0.69371997    -0.13400
C1646       C  0.81016941  0.54653791  0.68400085    -0.09100
C1647       C  0.81703041  0.54965954  0.65139684     0.06500
C1648       C  0.79988221  0.55182043  0.62924653    -0.14100
S1649       S  0.73875065  0.54670059  0.68517493    -0.31100
H1650       H  0.78120731  0.54321144  0.71879893     0.10800
S1651       S  0.84656470  0.54967777  0.63654999    -0.28200
H1652       H  0.80490350  0.55374053  0.60416174     0.08000
H1653       H  0.66543121  0.50661314  0.58457325     0.26400
H1654       H  0.74129890  0.54209171  0.71753458     0.21200
H1655       H  0.84679814  0.53215285  0.65971404     0.26500
H1656       H  0.79753858  0.60250252  0.63347648     0.15400
C1657       C  0.76538909  0.55378691  0.92125975    -0.11900
C1658       C  0.76103962  0.55686783  0.88905113     0.14600
C1659       C  0.73821813  0.55875371  0.88028494     0.01500
C1660       C  0.71985471  0.55656354  0.90366030    -0.16300
C1661       C  0.72411874  0.55319053  0.93572211    -0.11100
C1662       C  0.74732438  0.55220945  0.94469538     0.08300
C1663       C  0.77851998  0.55454130  0.86488957     0.09300
S1664       S  0.73101786  0.56318617  0.83964741    -0.25400
H1665       H  0.70195612  0.55721722  0.89678343     0.19600
S1666       S  0.75359739  0.54654109  0.98521663    -0.31100
H1667       H  0.78252162  0.55176941  0.92804720     0.09900
C1668       C  0.80611773  0.57435985  0.86111941     0.03100
C1669       C  0.82149184  0.57093901  0.83749122    -0.13400
C1670       C  0.80978565  0.54796405  0.81782900    -0.09100
C1671       C  0.78201057  0.52834133  0.82168214     0.06500
C1672       C  0.76692669  0.53165520  0.84535172    -0.14100
S1673       S  0.82153957  0.60414468  0.88593459    -0.31100
H1674       H  0.84272595  0.58597258  0.83455144     0.10800
S1675       S  0.76408333  0.49926764  0.79617548    -0.28200
H1676       H  0.74570528  0.51644976  0.84820457     0.08000
H1677       H  0.74621186  0.56409351  0.99897665     0.26400
H1678       H  0.84788083  0.61555845  0.87341995     0.21200
H1679       H  0.77634208  0.51353114  0.76807711     0.26500
H1680       H  0.75813435  0.57712766  0.82936545     0.15400
C1681       C  0.54365586  0.10487780  0.91359337    -0.11900
C1682       C  0.55068868  0.12294167  0.88817555     0.14600
C1683       C  0.54004502  0.14031770  0.88665332     0.01500
C1684       C  0.52288388  0.13941426  0.91094472    -0.16300
C1685       C  0.51537208  0.12082158  0.93594361    -0.11100
C1686       C  0.52625179  0.10369089  0.93746634     0.08300
C1687       C  0.56808673  0.12184779  0.86316220     0.09300
S1688       S  0.54666575  0.16327109  0.85404419    -0.25400
H1689       H  0.51443172  0.15247913  0.90965141     0.19600
S1690       S  0.51922238  0.08036040  0.96966067    -0.31100
H1691       H  0.55184211  0.09157537  0.91480899     0.09900
C1692       C  0.59545929  0.14221075  0.85960270     0.03100
C1693       C  0.61124536  0.13919133  0.83635962    -0.13400
C1694       C  0.60019768  0.11611139  0.81692372    -0.09100
C1695       C  0.57259607  0.09600147  0.82034062     0.06500
C1696       C  0.55702745  0.09893438  0.84366532    -0.14100
S1697       S  0.61047166  0.17148379  0.88526342    -0.31100
H1698       H  0.63239211  0.15459685  0.83365523     0.10800
S1699       S  0.55560640  0.06682769  0.79481502    -0.28200
H1700       H  0.53591710  0.08336189  0.84641273     0.08000
H1701       H  0.52129003  0.09853419  0.99337077     0.26400
H1702       H  0.63677575  0.18376780  0.87243142     0.21200
H1703       H  0.56776352  0.08123051  0.76675448     0.26500
H1704       H  0.55168806  0.14880384  0.83082596     0.15400
C1705       C  0.59846688  0.13909832  0.63294787    -0.11900
C1706       C  0.57165074  0.13086953  0.64134764     0.14600
C1707       C  0.56252249  0.12143927  0.67243981     0.01500
C1708       C  0.57985947  0.11922235  0.69394351    -0.16300
C1709       C  0.60649614  0.12681813  0.68549695    -0.11100
C1710       C  0.61609267  0.13748351  0.65482887     0.08300
C1711       C  0.55253394  0.12888484  0.61638785     0.09300
S1712       S  0.52862399  0.11092261  0.68570997    -0.25400
H1713       H  0.57241081  0.11134102  0.71754327     0.19600
S1714       S  0.64951106  0.14663512  0.64135931    -0.31100
H1715       H  0.60540049  0.14598597  0.60892276     0.09900
C1716       C  0.55141135  0.15148793  0.60585575     0.03100
C1717       C  0.53214873  0.14807796  0.58278438    -0.13400
C1718       C  0.51343611  0.12233622  0.57063281    -0.09100
C1719       C  0.51400865  0.09958642  0.58265536     0.06500
C1720       C  0.53390116  0.10325279  0.60461549    -0.14100
S1721       S  0.57388378  0.18444174  0.62256177    -0.31100
H1722       H  0.53185075  0.16560590  0.57403902     0.10800
S1723       S  0.48918502  0.06516421  0.57279729    -0.28200
H1724       H  0.53430418  0.08578899  0.61353417     0.08000
H1725       H  0.66272735  0.16691571  0.66449720     0.26400
H1726       H  0.56172612  0.19765129  0.60794683     0.21200
H1727       H  0.46712222  0.06909368  0.57697809     0.26500
H1728       H  0.52470037  0.12826443  0.66580206     0.15400
C1729       C  0.76866505  0.18501786  0.84780444    -0.11900
C1730       C  0.76142944  0.20023522  0.86697490     0.14600
C1731       C  0.73505783  0.19610714  0.86487329     0.01500
C1732       C  0.71700958  0.17802390  0.84241797    -0.16300
C1733       C  0.72430071  0.16323206  0.82221356    -0.11100
C1734       C  0.75030796  0.16617509  0.82601016     0.08300
C1735       C  0.78196641  0.22103207  0.88814726     0.09300
S1736       S  0.72334546  0.21363945  0.88980511    -0.25400
H1737       H  0.69710000  0.17578280  0.84060871     0.19600
S1738       S  0.76187971  0.14728441  0.80364975    -0.31100
H1739       H  0.78887110  0.18797896  0.84975472     0.09900
C1740       C  0.79141102  0.21399473  0.91528672     0.03100
C1741       C  0.80892205  0.23430171  0.93627028    -0.13400
C1742       C  0.81731049  0.26151136  0.93055138    -0.09100
C1743       C  0.80914472  0.26863643  0.90227839     0.06500
C1744       C  0.79131726  0.24828084  0.88156094    -0.14100
S1745       S  0.77982438  0.17910598  0.92441533    -0.31100
H1746       H  0.81515074  0.22880637  0.95797131     0.10800
S1747       S  0.82109688  0.30314483  0.89100542    -0.28200
H1748       H  0.78448213  0.25364796  0.86022638     0.08000
H1749       H  0.73950758  0.12216379  0.81241065     0.26400
H1750       H  0.79825214  0.18419933  0.94935273     0.21200
H1751       H  0.84725751  0.31360358  0.90391080     0.26500
H1752       H  0.73915489  0.21586118  0.91653968     0.15400
C1753       C  0.74653703  0.17116398  0.63171248    -0.11900
C1754       C  0.76284368  0.19902309  0.63713379     0.20600
C1755       C  0.76033410  0.20997737  0.66612220     0.01500
C1756       C  0.74278377  0.19276716  0.68954996    -0.16300
C1757       C  0.72654194  0.16484006  0.68432852    -0.11100
C1758       C  0.72803778  0.15407068  0.65463360     0.08300
C1759       C  0.78093956  0.21635510  0.61137835     0.09300
S1760       S  0.77816201  0.24574912  0.67436056    -0.25400
H1761       H  0.74147489  0.20139681  0.71193651     0.19600
S1762       S  0.70578796  0.11924078  0.64362021    -0.31100
H1763       H  0.74772377  0.16280583  0.60906641     0.09900
C1764       C  0.80938749  0.23110963  0.61477197     0.03100
C1765       C  0.82530626  0.24939726  0.59090699    -0.13400
C1766       C  0.81334627  0.25287389  0.56348690    -0.09100
C1767       C  0.78493351  0.23644460  0.55911581     0.06500
C1768       C  0.76910023  0.21864672  0.58328949    -0.14100
S1769       S  0.82537726  0.22650707  0.64934950    -0.31100
H1770       H  0.84707759  0.26149323  0.59395148     0.10800
S1771       S  0.76854365  0.23713381  0.52253896    -0.28200
H1772       H  0.74727257  0.20673718  0.58065364     0.08000
H1773       H  0.68266023  0.11723620  0.65791143     0.26400
H1774       H  0.85225163  0.24547587  0.64089729     0.21200
H1775       H  0.74228634  0.21606124  0.53011136     0.26500
H1776       H  0.77855729  0.25405298  0.64280427     0.15400
C1777       C  0.84283170  0.41384901  0.92272527    -0.11900
C1778       C  0.85725854  0.41966003  0.89412407     0.14600
C1779       C  0.87334687  0.40808371  0.88784324     0.01500
C1780       C  0.87480849  0.39110648  0.91046185    -0.16300
C1781       C  0.86054391  0.38535430  0.93923333    -0.11100
C1782       C  0.84452774  0.39707637  0.94550169     0.08300
C1783       C  0.85601567  0.43870281  0.87184221     0.09300
S1784       S  0.89312389  0.41468896  0.85201747    -0.25400
H1785       H  0.88700429  0.38209301  0.90543090     0.19600
S1786       S  0.82723335  0.39287984  0.98274113    -0.31100
H1787       H  0.83077988  0.42305647  0.92766596     0.09900
C1788       C  0.83600771  0.42963913  0.84802178     0.03100
C1789       C  0.83697123  0.44803955  0.82554773    -0.13400
C1790       C  0.85749436  0.47539831  0.82661199    -0.09100
C1791       C  0.87616814  0.48472893  0.85228574     0.06500
C1792       C  0.87551546  0.46617498  0.87423782    -0.14100
S1793       S  0.81028655  0.39435552  0.84517070    -0.31100
H1794       H  0.82236614  0.44079753  0.80628907     0.10800
S1795       S  0.90083875  0.51991107  0.85890563    -0.28200
H1796       H  0.89035190  0.47314792  0.89329401     0.08000
H1797       H  0.84839901  0.39470522  0.00154195     0.26400
H1798       H  0.79490074  0.39725365  0.82105643     0.21200
H1799       H  0.88385992  0.52943369  0.84846884     0.26500
H1800       H  0.87689093  0.42011972  0.83194103     0.15400
C1801       C  0.85654794  0.42571064  0.67718356    -0.11900
C1802       C  0.84983448  0.42721203  0.64547314     0.14600
C1803       C  0.84170577  0.44585513  0.63713200     0.01500
C1804       C  0.84114810  0.46297340  0.66046774    -0.16300
C1805       C  0.84925063  0.46238714  0.69183140    -0.11100
C1806       C  0.85625774  0.44294205  0.70038045     0.08300
C1807       C  0.85174361  0.40921211  0.62172623     0.09300
S1808       S  0.83312338  0.44969593  0.59693344    -0.25400
H1809       H  0.83586332  0.47788787  0.65369174     0.19600
S1810       S  0.86456414  0.43877428  0.74060280    -0.31100
H1811       H  0.86221971  0.41105947  0.68385098     0.09900
C1812       C  0.87703543  0.41260584  0.61301238     0.03100
C1813       C  0.87811822  0.39584397  0.58963624    -0.13400
C1814       C  0.85450598  0.37576288  0.57443674    -0.09100
C1815       C  0.82910525  0.37215372  0.58367282     0.06500
C1816       C  0.82802277  0.38868232  0.60740787    -0.14100
S1817       S  0.90812818  0.43903234  0.63062112    -0.31100
H1818       H  0.89760251  0.39862999  0.58284775     0.10800
S1819       S  0.79753673  0.34803208  0.56512024    -0.28200
H1820       H  0.80857446  0.38603794  0.61418587     0.08000
H1821       H  0.84640572  0.44520841  0.75485357     0.26400
H1822       H  0.92595403  0.43333999  0.61405756     0.21200
H1823       H  0.80770812  0.35444945  0.53392357     0.26500
H1824       H  0.85170784  0.44415142  0.58202990     0.15400
C1825       C  0.64271454  0.02522343  0.87031823    -0.11900
C1826       C  0.62706762  0.99799148  0.86121109     0.14600
C1827       C  0.62176782  0.99154164  0.82859031     0.01500
C1828       C  0.63008269  0.01224855  0.80618954    -0.16300
C1829       C  0.64464620  0.03949632  0.81535518    -0.11100
C1830       C  0.65167704  0.04602972  0.84774220     0.08300
C1831       C  0.61362058  0.97694047  0.88611370     0.09300
S1832       S  0.60417062  0.95722586  0.81420851    -0.25400
H1833       H  0.62505167  0.00705216  0.78131683     0.19600
S1834       S  0.67046003  0.08037622  0.86197731    -0.31100
H1835       H  0.64689230  0.03031416  0.89532357     0.09900
C1836       C  0.62797066  0.96823977  0.90519392     0.03100
C1837       C  0.61394684  0.94796680  0.92815601    -0.13400
C1838       C  0.58581908  0.93621143  0.93232154    -0.09100
C1839       C  0.57149790  0.94452111  0.91241207     0.06500
C1840       C  0.58552143  0.96494189  0.88999714    -0.14100
S1841       S  0.66396047  0.98254950  0.89973266    -0.31100
H1842       H  0.62494207  0.94157170  0.94329738     0.10800
S1843       S  0.53512426  0.92868798  0.91309539    -0.28200
H1844       H  0.57434046  0.97120760  0.87493789     0.08000
H1845       H  0.65791494  0.09028248  0.84176675     0.26400
H1846       H  0.66723300  0.96662098  0.92265388     0.21200
H1847       H  0.53092201  0.90245101  0.91560168     0.26500
H1848       H  0.61274911  0.94670849  0.83880252     0.15400
C1849       C  0.62893373  0.97738314  0.58857305    -0.11900
C1850       C  0.61701552  0.97517640  0.61832835     0.14600
C1851       C  0.59232772  0.95162498  0.62600529     0.01500
C1852       C  0.57928573  0.93147230  0.60303882    -0.16300
C1853       C  0.59054756  0.93419601  0.57267940    -0.11100
C1854       C  0.61604946  0.95706352  0.56573204     0.08300
C1855       C  0.62795611  0.99946794  0.63835573     0.09300
S1856       S  0.57537181  0.94714121  0.66362147    -0.25400
H1857       H  0.55969825  0.91397231  0.60847447     0.19600
S1858       S  0.63115831  0.96317028  0.52681183    -0.31100
H1859       H  0.64761866  0.99571552  0.58250322     0.09900
C1860       C  0.64850868  0.00602259  0.66094833     0.03100
C1861       C  0.65619131  0.02809512  0.68127907    -0.13400
C1862       C  0.64389180  0.04386883  0.67900079    -0.09100
C1863       C  0.62497472  0.03844988  0.65420151     0.06500
C1864       C  0.61687944  0.01603551  0.63469209    -0.14100
S1865       S  0.66369345  0.98535414  0.66499975    -0.31100
H1866       H  0.67084093  0.03222080  0.69995562     0.10800
S1867       S  0.61034764  0.05912748  0.64583904    -0.28200
H1868       H  0.60164930  0.01132203  0.61650611     0.08000
H1869       H  0.63292199  0.93968574  0.52724005     0.26400
H1870       H  0.68283349  0.00124031  0.68838779     0.21200
H1871       H  0.63405610  0.08369067  0.65300612     0.26500
H1872       H  0.59882222  0.96334144  0.68170928     0.15400
C1873       C  0.38463804  0.84153524  0.86632475    -0.11900
C1874       C  0.41149802  0.86291412  0.86887954     0.14600
C1875       C  0.42074382  0.88534858  0.84839711     0.01500
C1876       C  0.40278052  0.88633641  0.82669604    -0.16300
C1877       C  0.37581674  0.86502473  0.82403887    -0.11100
C1878       C  0.36669103  0.84240198  0.84434830     0.08300
C1879       C  0.42915396  0.86181539  0.89385770     0.09300
S1880       S  0.45532035  0.91316591  0.84835329    -0.25400
H1881       H  0.41026032  0.90358458  0.81094209     0.19600
S1882       S  0.33214902  0.81482929  0.84478391    -0.31100
H1883       H  0.37742025  0.82437703  0.88217659     0.09900
C1884       C  0.43753231  0.87935099  0.92028338     0.03100
C1885       C  0.45597815  0.87918196  0.94205325    -0.13400
C1886       C  0.46585345  0.86148624  0.93834657    -0.09100
C1887       C  0.45694242  0.84349496  0.91225083     0.06500
C1888       C  0.43847973  0.84365360  0.89047345    -0.14100
S1889       S  0.42430467  0.90154638  0.92664946    -0.31100
H1890       H  0.46260831  0.89273506  0.96229540     0.10800
S1891       S  0.46969162  0.82121141  0.90439587    -0.28200
H1892       H  0.43209461  0.83023036  0.87009691     0.08000
H1893       H  0.32156181  0.83181608  0.84031825     0.26400
H1894       H  0.43925878  0.91407395  0.95438013     0.21200
H1895       H  0.49656278  0.84012016  0.91306313     0.26500
H1896       H  0.46721222  0.89809209  0.85775698     0.15400
C1897       C  0.41744267  0.85705711  0.67538624    -0.11900
C1898       C  0.40703130  0.84680973  0.64507145     0.14600
C1899       C  0.37921925  0.83687611  0.63888821     0.01500
C1900       C  0.36311351  0.83932905  0.66224542    -0.16300
C1901       C  0.37399750  0.85103570  0.69196667    -0.11100
C1902       C  0.40122228  0.85889951  0.69893907     0.08300
C1903       C  0.42624836  0.84869011  0.62005046     0.09300
S1904       S  0.36328289  0.82161836  0.60146119    -0.25400
H1905       H  0.34216747  0.83283472  0.65679818     0.19600
S1906       S  0.41639145  0.87113540  0.73755702    -0.31100
H1907       H  0.43857401  0.86416856  0.68055947     0.09900
C1908       C  0.43349972  0.86706837  0.59463175     0.03100
C1909       C  0.45255891  0.86913940  0.57221992    -0.13400
C1910       C  0.46530290  0.85379482  0.57486151    -0.09100
C1911       C  0.45855238  0.83594347  0.60096857     0.06500
C1912       C  0.43892131  0.83336382  0.62295286    -0.14100
S1913       S  0.41955862  0.88896393  0.59150915    -0.31100
H1914       H  0.45770145  0.88302645  0.55251991     0.10800
S1915       S  0.47525757  0.81714808  0.60869607    -0.28200
H1916       H  0.43393551  0.81976476  0.64296960     0.08000
H1917       H  0.39260938  0.85421196  0.75475320     0.26400
H1918       H  0.43179519  0.90109178  0.56240301     0.21200
H1919       H  0.50131452  0.83849375  0.60078894     0.26500
H1920       H  0.38128597  0.81286162  0.59304304     0.15400
C1921       C  0.10172766  0.52625387  0.85977796    -0.11900
C1922       C  0.11856019  0.55382140  0.85342212     0.14600
C1923       C  0.13637712  0.56204264  0.82717023     0.01500
C1924       C  0.13669199  0.54247143  0.80772494    -0.16300
C1925       C  0.11908222  0.51480945  0.81344123    -0.11100
C1926       C  0.10176080  0.50672994  0.84021585     0.08300
C1927       C  0.11818489  0.57320384  0.87610896     0.09300
S1928       S  0.15835940  0.59701202  0.81654768    -0.25400
H1929       H  0.14985445  0.54891830  0.78709248     0.19600
S1930       S  0.07980161  0.47192790  0.85140467    -0.31100
H1931       H  0.08864109  0.51989771  0.88048319     0.09900
C1932       C  0.09444531  0.57414418  0.88154193     0.03100
C1933       C  0.09414561  0.59050729  0.90595505    -0.13400
C1934       C  0.11716692  0.60624685  0.92504845    -0.09100
C1935       C  0.14145670  0.60632305  0.91808726     0.06500
C1936       C  0.14144682  0.58946948  0.89420024    -0.14100
S1937       S  0.06446940  0.55449582  0.85743554    -0.31100
H1938       H  0.07562813  0.59063862  0.91044212     0.10800
S1939       S  0.17306213  0.62659446  0.93887702    -0.28200
H1940       H  0.15970397  0.58872778  0.88991978     0.08000
H1941       H  0.09840278  0.46405489  0.84252170     0.26400
H1942       H  0.04817717  0.56317856  0.87209846     0.21200
H1943       H  0.17374079  0.65094202  0.93263725     0.26500
H1944       H  0.14145181  0.60612542  0.82828883     0.15400
C1945       C  0.12380052  0.56341755  0.57495158    -0.11900
C1946       C  0.13099437  0.57274264  0.60630181     0.14600
C1947       C  0.13816821  0.59954270  0.61368810     0.01500
C1948       C  0.13685940  0.61593128  0.58991579    -0.16300
C1949       C  0.12811815  0.60602327  0.55900031    -0.11100
C1950       C  0.12241706  0.57973674  0.55127618     0.08300
C1951       C  0.12906312  0.55343182  0.63095721     0.09300
S1952       S  0.14798331  0.61365450  0.65314296    -0.25400
H1953       H  0.14116790  0.63599221  0.59611378     0.19600
S1954       S  0.11336393  0.56588956  0.51163555    -0.31100
H1955       H  0.11871750  0.54302941  0.56904972     0.09900
C1956       C  0.10357786  0.53245765  0.64128930     0.03100
C1957       C  0.10221584  0.51467637  0.66495291    -0.13400
C1958       C  0.12579387  0.51741472  0.67894635    -0.09100
C1959       C  0.15138130  0.53883796  0.66881286     0.06500
C1960       C  0.15271639  0.55629299  0.64465002    -0.14100
S1961       S  0.07265964  0.52876872  0.62495378    -0.31100
H1962       H  0.08257224  0.49844742  0.67256502     0.10800
S1963       S  0.18292015  0.54608961  0.68689784    -0.28200
H1964       H  0.17230621  0.57266084  0.63700057     0.08000
H1965       H  0.12971250  0.59058086  0.49600106     0.26400
H1966       H  0.05456615  0.50749681  0.64478959     0.21200
H1967       H  0.17299168  0.54246502  0.71822943     0.26500
H1968       H  0.13154940  0.58953487  0.66980096     0.15400
C1969       C  0.02452460  0.37176140  0.86481765    -0.11900
C1970       C  0.99792413  0.36475845  0.85685128     0.14600
C1971       C  0.99244302  0.36975328  0.82565590     0.01500
C1972       C  0.01376678  0.38351700  0.80409947    -0.16300
C1973       C  0.04072837  0.39197196  0.81243819    -0.11100
C1974       C  0.04593224  0.38523582  0.84305888     0.08300
C1975       C  0.97747557  0.35694849  0.88262072     0.09300
S1976       S  0.95864976  0.35960663  0.81224092    -0.25400
H1977       H  0.00921537  0.38778293  0.78051236     0.19600
S1978       S  0.07938851  0.39467347  0.85687298    -0.31100
H1979       H  0.02890369  0.36810018  0.88878194     0.09900
C1980       C  0.96510895  0.33158085  0.89775576     0.03100
C1981       C  0.94595364  0.32577170  0.92205243    -0.13400
C1982       C  0.93913806  0.34498270  0.93182216    -0.09100
C1983       C  0.95145305  0.37030969  0.91614320     0.06500
C1984       C  0.97044559  0.37592151  0.89198774    -0.14100
S1985       S  0.97321744  0.30646030  0.88555994    -0.31100
H1986       H  0.93648337  0.30631942  0.93375342     0.10800
S1987       S  0.94258943  0.39550492  0.92549424    -0.28200
H1988       H  0.98002355  0.39532430  0.88014549     0.08000
H1989       H  0.09254982  0.42033969  0.84275824     0.26400
H1990       H  0.95798649  0.28737132  0.90917130     0.21200
H1991       H  0.95732603  0.41372662  0.90093646     0.26500
H1992       H  0.94518049  0.33748757  0.83299195     0.15400
C1993       C  0.02498712  0.39486746  0.62638332    -0.11900
C1994       C  0.00473592  0.36819686  0.63266135     0.14600
C1995       C  0.00655536  0.35493848  0.65990099     0.01500
C1996       C  0.02767971  0.36931422  0.68148910    -0.16300
C1997       C  0.04700183  0.39662293  0.67633324    -0.11100
C1998       C  0.04624649  0.40920615  0.64774941     0.08300
C1999       C  0.98067085  0.35609962  0.61207038     0.09300
S2000       S  0.98167513  0.32044320  0.66948680    -0.25400
H2001       H  0.02819486  0.35948261  0.70326066     0.19600
S2002       S  0.07119561  0.44351301  0.63725284    -0.31100
H2003       H  0.02366642  0.40487074  0.60517658     0.09900
C2004       C  0.95746667  0.35711286  0.62064707     0.03100
C2005       C  0.93626725  0.34864767  0.59872691    -0.13400
C2006       C  0.93787651  0.33912069  0.56856984    -0.09100
C2007       C  0.96077737  0.33721434  0.56056441     0.06500
C2008       C  0.98208937  0.34602803  0.58228911    -0.14100
S2009       S  0.95562502  0.37072803  0.65871331    -0.31100
H2010       H  0.91873019  0.35022073  0.60462690     0.10800
S2011       S  0.96524575  0.32666368  0.52182769    -0.28200
H2012       H  0.00020386  0.34571887  0.57567746     0.08000
H2013       H  0.09300222  0.44437966  0.65365298     0.26400
H2014       H  0.93035695  0.36867018  0.65375400     0.21200
H2015       H  0.94217605  0.30074050  0.52462220     0.26500
H2016       H  0.97255905  0.31191388  0.63823837     0.15400
C2017       C  0.37476785  0.36932881  0.83919584    -0.11900
C2018       C  0.35578583  0.34865085  0.85866437     0.14600
C2019       C  0.35070773  0.32213252  0.85417677     0.01500
C2020       C  0.36551331  0.31722516  0.83119963    -0.16300
C2021       C  0.38524903  0.33816301  0.81213545    -0.11100
C2022       C  0.38968846  0.36464460  0.81651028     0.08300
C2023       C  0.34418390  0.35662551  0.88522848     0.09300
S2024       S  0.32579985  0.29379745  0.87702984    -0.25400
H2025       H  0.36142306  0.29679656  0.82814317     0.19600
S2026       S  0.41508522  0.39407201  0.79568645    -0.31100
H2027       H  0.37894674  0.38975730  0.84277787     0.09900
C2028       C  0.35409478  0.35912472  0.91653557     0.03100
C2029       C  0.34668785  0.37158216  0.93989831    -0.13400
C2030       C  0.32991518  0.38211997  0.93268717    -0.09100
C2031       C  0.31956884  0.37912416  0.90140744     0.06500
C2032       C  0.32658193  0.36620184  0.87819249    -0.14100
S2033       S  0.37788488  0.34837193  0.92624406    -0.31100
H2034       H  0.35467655  0.37387739  0.96380331     0.10800
S2035       S  0.29944942  0.39343061  0.88885765    -0.28200
H2036       H  0.31949528  0.36494446  0.85396874     0.08000
H2037       H  0.43598298  0.38935201  0.80439134     0.26400
H2038       H  0.38121470  0.35579283  0.95856202     0.21200
H2039       H  0.31468473  0.41779396  0.90571981     0.26500
H2040       H  0.30982048  0.30501918  0.88509045     0.15400
C2041       C  0.35173755  0.38269591  0.61972317    -0.11900
C2042       C  0.34239982  0.35536378  0.61398243     0.14600
C2043       C  0.32515280  0.34243804  0.58772523     0.01500
C2044       C  0.31927658  0.35764502  0.56658518    -0.16300
C2045       C  0.33006129  0.38548166  0.57122610    -0.11100
C2046       C  0.34553329  0.39777995  0.59902025     0.08300
C2047       C  0.35330348  0.34214796  0.63444955     0.09300
S2048       S  0.31114802  0.30709486  0.57896122    -0.25400
H2049       H  0.30722380  0.34788843  0.54557307     0.19600
S2050       S  0.35823005  0.43263900  0.60948724    -0.31100
H2051       H  0.36460387  0.39256258  0.64017506     0.09900
C2052       C  0.37596575  0.34050301  0.62477917     0.03100
C2053       C  0.38948400  0.33334192  0.64705380    -0.13400
C2054       C  0.38050351  0.32733449  0.67865834    -0.09100
C2055       C  0.35668139  0.32721896  0.68766608     0.06500
C2056       C  0.34360983  0.33502835  0.66564314    -0.14100
S2057       S  0.38878762  0.34936511  0.58466130    -0.31100
H2058       H  0.40772800  0.33340051  0.64022689     0.10800
S2059       S  0.34399431  0.32052270  0.72783136    -0.28200
H2060       H  0.32638543  0.33659209  0.67318949     0.08000
H2061       H  0.33574071  0.43341525  0.59731095     0.26400
H2062       H  0.41191035  0.34715101  0.58909885     0.21200
H2063       H  0.34143324  0.29490819  0.72882265     0.26500
H2064       H  0.31366896  0.29905534  0.60972274     0.15400
C2065       C  0.23374863  0.45626224  0.90557903    -0.11900
C2066       C  0.21816835  0.43307188  0.88724886     0.14600
C2067       C  0.22082060  0.41021934  0.89223980     0.01500
C2068       C  0.23829970  0.41089940  0.91613872    -0.16300
C2069       C  0.25424384  0.43434827  0.93421773    -0.11100
C2070       C  0.25160447  0.45725941  0.92881995     0.08300
C2071       C  0.20049433  0.43440211  0.86239437     0.09300
S2072       S  0.20371013  0.38020276  0.86800551    -0.25400
H2073       H  0.24033293  0.39336828  0.91968495     0.19600
S2074       S  0.26973237  0.48844983  0.95085629    -0.31100
H2075       H  0.23186811  0.47386805  0.90177461     0.09900
C2076       C  0.17194754  0.41826038  0.86332389     0.03100
C2077       C  0.15650084  0.42122865  0.83941424    -0.13400
C2078       C  0.16893973  0.44078439  0.81549777    -0.09100
C2079       C  0.19747241  0.45713878  0.81497463     0.06500
C2080       C  0.21284822  0.45379270  0.83832534    -0.14100
S2081       S  0.15509802  0.39516744  0.89584236    -0.31100
H2082       H  0.13464253  0.40880028  0.83974391     0.10800
S2083       S  0.21554220  0.48187864  0.78446139    -0.28200
H2084       H  0.23475917  0.46636354  0.83766102     0.08000
H2085       H  0.26601819  0.47597282  0.98060146     0.26400
H2086       H  0.12858712  0.38364774  0.88370271     0.21200
H2087       H  0.19903774  0.46534573  0.75958413     0.26500
H2088       H  0.20228446  0.39308589  0.84028113     0.15400
C2089       C  0.21575910  0.43673442  0.57878960    -0.11900
C2090       C  0.21644392  0.42788891  0.60966831     0.14600
C2091       C  0.23403675  0.41804929  0.61642485     0.01500
C2092       C  0.25194520  0.41923183  0.59294220    -0.16300
C2093       C  0.25210688  0.42924446  0.56245570    -0.11100
C2094       C  0.23296428  0.43701131  0.55503177     0.08300
C2095       C  0.19947126  0.43039732  0.63446529     0.09300
S2096       S  0.23478517  0.40401940  0.65453222    -0.25400
H2097       H  0.26613577  0.41266612  0.59864902     0.19600
S2098       S  0.22868470  0.44638076  0.51548167    -0.31100
H2099       H  0.20177577  0.44358740  0.57320727     0.09900
C2100       C  0.21118749  0.44967334  0.65901035     0.03100
C2101       C  0.19441639  0.45182623  0.68160071    -0.13400
C2102       C  0.16598339  0.43545586  0.68005829    -0.09100
C2103       C  0.15431572  0.41673247  0.65462757     0.06500
C2104       C  0.17116587  0.41424138  0.63245774    -0.14100
S2105       S  0.24749140  0.47226225  0.66096908    -0.31100
H2106       H  0.20360687  0.46644369  0.70060386     0.10800
S2107       S  0.11828047  0.39640246  0.64792822    -0.28200
H2108       H  0.16213803  0.39989794  0.61309536     0.08000
H2109       H  0.23426910  0.42814607  0.49989992     0.26400
H2110       H  0.24780610  0.48638491  0.68844255     0.21200
H2111       H  0.11346228  0.41756820  0.65414507     0.26500
H2112       H  0.20768991  0.39494098  0.66266658     0.15400
C2113       C  0.63091038  0.63027585  0.92247513    -0.11900
C2114       C  0.63551841  0.62755515  0.89034106     0.14600
C2115       C  0.64968792  0.61425228  0.88206007     0.01500
C2116       C  0.65707206  0.60222505  0.90594283    -0.16300
C2117       C  0.65050427  0.60316771  0.93785187    -0.11100
C2118       C  0.63828423  0.61828390  0.94627998     0.08300
C2119       C  0.62104737  0.63432607  0.86632518     0.09300
S2120       S  0.65670452  0.60986604  0.84135344    -0.25400
H2121       H  0.66636044  0.59056705  0.89936056     0.19600
S2122       S  0.63042157  0.62186050  0.98688780    -0.31100
H2123       H  0.62009634  0.64048599  0.92891518     0.09900
C2124       C  0.59698679  0.61373440  0.85250690     0.03100
C2125       C  0.58321082  0.62044923  0.83037021    -0.13400
C2126       C  0.59293408  0.64739649  0.82108526    -0.09100
C2127       C  0.61703180  0.66809711  0.83540686     0.06500
C2128       C  0.63053093  0.66134689  0.85825100    -0.14100
S2129       S  0.58346269  0.57875949  0.86344837    -0.31100
H2130       H  0.56462992  0.60433945  0.82013550     0.10800
S2131       S  0.63220937  0.70315652  0.82488096    -0.28200
H2132       H  0.64893464  0.67718161  0.86922572     0.08000
H2133       H  0.65244591  0.62098724  0.00030327     0.26400
H2134       H  0.56027646  0.56767198  0.84392070     0.21200
H2135       H  0.63116930  0.69819933  0.79195257     0.26500
H2136       H  0.65622477  0.63229601  0.82897219     0.15400
C2137       C  0.60281761  0.59861851  0.59199248    -0.11900
C2138       C  0.62304691  0.61581196  0.61333704     0.14600
C2139       C  0.64939461  0.61993372  0.61065745     0.01500
C2140       C  0.65473132  0.60606419  0.58716100    -0.16300
C2141       C  0.63430363  0.58829393  0.56613180    -0.11100
C2142       C  0.60815403  0.58510587  0.56820000     0.08300
C2143       C  0.61493211  0.62682752  0.63982165     0.09300
S2144       S  0.67676657  0.64213486  0.63679101    -0.25400
H2145       H  0.67489587  0.60889791  0.58555725     0.19600
S2146       S  0.58073183  0.56471611  0.54113401    -0.31100
H2147       H  0.58258584  0.59557300  0.59408298     0.09900
C2148       C  0.61075818  0.64870575  0.63545993     0.03100
C2149       C  0.59887566  0.65566816  0.65997318    -0.13400
C2150       C  0.59101924  0.64090056  0.68837983    -0.09100
C2151       C  0.59673752  0.62007394  0.69331237     0.06500
C2152       C  0.60843267  0.61308589  0.66888449    -0.14100
S2153       S  0.61977163  0.66705749  0.59836953    -0.31100
H2154       H  0.59454377  0.67174006  0.65653515     0.10800
S2155       S  0.58923616  0.60160268  0.73013659    -0.28200
H2156       H  0.61182903  0.59636553  0.67219372     0.08000
H2157       H  0.59702180  0.57215118  0.51383345     0.26400
H2158       H  0.61331265  0.68659076  0.60767674     0.21200
H2159       H  0.59715399  0.62441855  0.74937425     0.26500
H2160       H  0.66706481  0.65962698  0.64355175     0.15400
C2161       C  0.42602245  0.58044018  0.65538915    -0.11900
C2162       C  0.42997367  0.56032548  0.64220864     0.14600
C2163       C  0.45254808  0.55845036  0.65177805     0.01500
C2164       C  0.47087412  0.57692078  0.67376334    -0.16300
C2165       C  0.46708199  0.59712908  0.68717024    -0.11100
C2166       C  0.44416892  0.59875298  0.67798668     0.08300
C2167       C  0.41136896  0.54268574  0.61696016     0.09300
S2168       S  0.45905727  0.53285612  0.63696616    -0.25400
H2169       H  0.48825317  0.57533508  0.68061390     0.19600
S2170       S  0.43687814  0.62291601  0.69585620    -0.31100
H2171       H  0.40861434  0.58168792  0.64787500     0.09900
C2172       C  0.38417757  0.52288476  0.62333889     0.03100
C2173       C  0.36791584  0.50581323  0.59866877    -0.13400
C2174       C  0.37845490  0.50811776  0.56795030    -0.09100
C2175       C  0.40538052  0.52865329  0.56147192     0.06500
C2176       C  0.42154226  0.54553276  0.58602197    -0.14100
S2177       S  0.37063135  0.51847103  0.66310602    -0.31100
H2178       H  0.34724829  0.49004557  0.60348567     0.10800
S2179       S  0.42004312  0.53484322  0.52222978    -0.28200
H2180       H  0.44229532  0.56106355  0.58101631     0.08000
H2181       H  0.41472053  0.61748854  0.67628834     0.26400
H2182       H  0.34466110  0.49651505  0.65616122     0.21200
H2183       H  0.39613142  0.52930827  0.50636903     0.26500
H2184       H  0.43172320  0.51278591  0.63258774     0.15400
C2185       C  0.38729599  0.53552853  0.89014193    -0.11900
C2186       C  0.41483879  0.54346980  0.89030715     0.14600
C2187       C  0.42454942  0.53235559  0.91306229     0.01500
C2188       C  0.40633053  0.51239127  0.93375393    -0.16300
C2189       C  0.37871862  0.50410963  0.93336223    -0.11100
C2190       C  0.36913707  0.51592865  0.91139417     0.08300
C2191       C  0.43268057  0.56170731  0.86506965     0.09300
S2192       S  0.45997372  0.54301150  0.91709602    -0.25400
H2193       H  0.41392128  0.50386514  0.95105570     0.19600
S2194       S  0.33385138  0.50566271  0.90809895    -0.31100
H2195       H  0.37977160  0.54395763  0.87263873     0.09900
C2196       C  0.44318105  0.55221668  0.84142148     0.03100
C2197       C  0.46216193  0.57050040  0.81977494    -0.13400
C2198       C  0.47041624  0.59799646  0.82075334    -0.09100
C2199       C  0.45913026  0.60732170  0.84373969     0.06500
C2200       C  0.44022136  0.58902816  0.86555114    -0.14100
S2201       S  0.43190997  0.51669342  0.83832715    -0.31100
H2202       H  0.47033811  0.56331014  0.80159691     0.10800
S2203       S  0.46914265  0.64237715  0.84750642    -0.28200
H2204       H  0.43207395  0.59627248  0.88372113     0.08000
H2205       H  0.32463636  0.47805248  0.91203453     0.26400
H2206       H  0.44907184  0.51891984  0.81314203     0.21200
H2207       H  0.49663931  0.65226256  0.84064161     0.26500
H2208       H  0.47004862  0.56962024  0.90653263     0.15400
C2209       C  0.56765176  0.80400739  0.61325891    -0.11900
C2210       C  0.55356714  0.77613813  0.60702954     0.14600
C2211       C  0.53779772  0.76646000  0.57904264     0.01500
C2212       C  0.53522351  0.78440699  0.55900057    -0.16300
C2213       C  0.54861947  0.81222536  0.56552295    -0.11100
C2214       C  0.56532785  0.82211455  0.59292216     0.08300
C2215       C  0.55208794  0.75721310  0.63210886     0.09300
S2216       S  0.52023059  0.73130695  0.56773192    -0.25400
H2217       H  0.52278617  0.77652392  0.53782225     0.19600
S2218       S  0.58263697  0.85715531  0.60450619    -0.31100
H2219       H  0.57945705  0.81153930  0.63493902     0.09900
C2220       C  0.57445744  0.75473667  0.64094907     0.03100
C2221       C  0.57131185  0.73607716  0.66470438    -0.13400
C2222       C  0.54611811  0.71955075  0.67969922    -0.09100
C2223       C  0.52359572  0.72176632  0.66975384     0.06500
C2224       C  0.52705557  0.74081129  0.64684570    -0.14100
S2225       S  0.60677321  0.77485174  0.62150210    -0.31100
H2226       H  0.58865442  0.73456641  0.67178131     0.10800
S2227       S  0.48946043  0.70044532  0.68396691    -0.28200
H2228       H  0.50975341  0.74247543  0.63980995     0.08000
H2229       H  0.56117870  0.86119679  0.59612601     0.26400
H2230       H  0.62064828  0.76433449  0.63817756     0.21200
H2231       H  0.48975422  0.67657259  0.67786422     0.26500
H2232       H  0.53851891  0.72521316  0.58247396     0.15400
C2233       C  0.53040085  0.76956254  0.90759432    -0.11900
C2234       C  0.54788487  0.78244707  0.88191896     0.14600
C2235       C  0.56261769  0.81096237  0.88045948     0.01500
C2236       C  0.55987950  0.82582609  0.90511256    -0.16300
C2237       C  0.54174803  0.81279856  0.93029207    -0.11100
C2238       C  0.52693300  0.78436454  0.93145497     0.08300
C2239       C  0.54856327  0.76505467  0.85651351     0.09300
S2240       S  0.58461366  0.82953380  0.84772351    -0.25400
H2241       H  0.57135073  0.84769513  0.90419228     0.19600
S2242       S  0.50448779  0.76598553  0.96378210    -0.31100
H2243       H  0.51904673  0.74770056  0.90879146     0.09900
C2244       C  0.57058728  0.76089555  0.85247933     0.03100
C2245       C  0.56844099  0.74160143  0.83030411    -0.13400
C2246       C  0.54460301  0.72631587  0.81240730    -0.09100
C2247       C  0.52323314  0.73170492  0.81549321     0.06500
C2248       C  0.52529994  0.75060932  0.83775357    -0.14100
S2249       S  0.60070903  0.77903184  0.87666503    -0.31100
H2250       H  0.58494097  0.73771230  0.82769861     0.10800
S2251       S  0.49314810  0.71591786  0.79107100    -0.28200
H2252       H  0.50853086  0.75409878  0.84058940     0.08000
H2253       H  0.48638655  0.77491721  0.95645800     0.26400
H2254       H  0.61548252  0.76848671  0.86222292     0.21200
H2255       H  0.50725660  0.71802137  0.76284435     0.26500
H2256       H  0.57123765  0.80945498  0.82445767     0.15400
loop_ 
_geom_bond_atom_site_label_1 
_geom_bond_atom_site_label_2 
_geom_bond_distance 
_geom_bond_site_symmetry_2 
_ccdc_geom_bond_type 
O1           C16   1.264       .  A
O1           Al9   1.916       .  S
C2           O12   1.258       .  A
C2            O3   1.258       .  A
C2         C1037   1.488       .  S
O3           Al5   1.904       .  S
O4            C6   1.258       .  A
O4           Al5   1.877       .  S
Al5          O13   1.869       .  S
Al5          O15   1.898       .  S
Al5          O14   1.783       .  S
C6           O19   1.263       .  A
C6         C1022   1.458       .  S
O7           C17   1.266       .  A
O7           Al9   1.910       .  S
O8           C21   1.257       .  A
O8          Al18   1.889       .  S
Al9          O22   1.916       .  S
Al9          O19   1.923       .  S
Al9          O14   1.789       .  S
O10          C17   1.263       .  A
O10         Al18   1.911       .  S
O11          C20   1.265       .  A
O11         Al18   1.921       .  S
O12         Al18   1.904       .  S
O13          C20   1.257       .  A
O14         Al18   1.780       .  S
O15          C16   1.261       .  A
C16         C998   1.485       .  S
C17        C1094   1.497       .  S
C20        C1070   1.464       .  S
C21          O22   1.260       .  A
C21        C1118   1.481       .  S
O23          C38   1.261       .  A
O23       Al1159   1.912       .  S
C24          O34   1.259       .  A
C24          O25   1.262       .  A
C24        C1046   1.474       .  S
O25       Al1155   1.920       .  S
O26          C28   1.260       .  A
O26       Al1155   1.878       .  S
Al27         O35   1.881       .  S
Al27         O37   1.914       .  S
Al27       O1153   1.916       .  S
Al27       O1154   1.875       .  S
Al27         O36   1.781       .  S
C28          O41   1.270       .  A
C28         C917   1.482       .  S
O29          C39   1.260       .  A
O29         Al31   1.904   1_554  S
O30          C43   1.254       .  A
O30         Al40   1.872       .  S
Al31         O41   1.942   1_556  S
Al31       O1151   1.911       .  S
Al31       O1172   1.942       .  S
Al31       O1164   1.784   1_556  S
O32          C39   1.261       .  A
O32       Al1168   1.915       .  S
O33          C42   1.266       .  A
O33         Al40   1.923       .  S
O34       Al1168   1.899       .  S
O35          C42   1.260       .  A
O36         Al40   1.777       .  S
O36       Al1159   1.781       .  S
O37          C38   1.261       .  A
C38         C902   1.475       .  S
C39         C965   1.474       .  S
Al40       O1160   1.919       .  S
Al40       O1162   1.896       .  S
C42        C1061   1.467       .  S
C43          O44   1.267       .  A
C43         C941   1.482       .  S
O44       Al1159   1.936       .  S
O45          C60   1.259       .  A
O45         Al53   1.908       .  S
C46          O56   1.258       .  A
C46          O47   1.260       .  A
C46         C830   1.482       .  S
O47         Al49   1.912       .  S
O48          C50   1.259       .  A
O48         Al49   1.870       .  S
Al49         O57   1.886       .  S
Al49         O59   1.906       .  S
Al49         O58   1.783       .  S
C50          O63   1.265       .  A
C50         C869   1.463       .  S
O51          C61   1.259       .  A
O51         Al53   1.899       .  S
O52          C65   1.259       .  A
O52         Al62   1.888       .  S
Al53         O66   1.907       .  S
Al53         O63   1.919       .  S
Al53         O58   1.791       .  S
O54          C61   1.261       .  A
O54         Al62   1.903       .  S
O55          C64   1.265       .  A
O55         Al62   1.921       .  S
O56         Al62   1.899       .  S
O57          C64   1.261       .  A
O58         Al62   1.785       .  S
O59          C60   1.259       .  A
C60         C845   1.482       .  S
C61         C974   1.492       .  S
C64         C797   1.476       .  S
C65          O66   1.261       .  A
C65         C950   1.469       .  S
O67          C82   1.262       .  A
O67       Al1203   1.909       .  S
C68          O78   1.259       .  A
C68          O69   1.259       .  A
C68         C782   1.488       .  S
O69       Al1199   1.899       .  S
O70          C72   1.256       .  A
O70       Al1199   1.879       .  S
Al71         O79   1.870       .  S
Al71         O81   1.918       .  S
Al71       O1197   1.893       .  S
Al71       O1198   1.880       .  S
Al71         O80   1.792       .  S
C72          O85   1.258       .  A
C72         C725   1.475       .  S
O73          C83   1.263       .  A
O73         Al75   1.907   1_554  S
O74          C87   1.256       .  A
O74         Al84   1.887       .  S
Al75         O85   1.910   1_556  S
Al75       O1195   1.907       .  S
Al75       O1216   1.905       .  S
Al75       O1208   1.801   1_556  S
O76          C83   1.263       .  A
O76       Al1212   1.910       .  S
O77          C86   1.264       .  A
O77         Al84   1.919       .  S
O78       Al1212   1.906       .  S
O79          C86   1.257       .  A
O80         Al84   1.792       .  S
O80       Al1203   1.799       .  S
O81          C82   1.262       .  A
C82         C710   1.487       .  S
C83        C1085   1.486       .  S
Al84       O1204   1.909       .  S
Al84       O1206   1.910       .  S
C86         C758   1.468       .  S
C87          O88   1.258       .  A
C87        C1109   1.476       .  S
O88       Al1203   1.907       .  S
O89         C104   1.261       .  A
O89       Al1225   1.906       .  S
C90         O100   1.259       .  A
C90          O91   1.264       .  A
C90         C686   1.487       .  S
O91       Al1221   1.918       .  S
O92          C94   1.258       .  A
O92       Al1221   1.881       .  S
Al93        O101   1.882       .  S
Al93        O103   1.913       .  S
Al93       O1219   1.908       .  S
Al93       O1220   1.880       .  S
Al93        O102   1.776       .  S
C94         O107   1.258       .  A
C94         C878   1.468       .  S
O95         C105   1.263       .  A
O95         Al97   1.910   1_554  S
O96         C109   1.261       .  A
O96        Al106   1.894       .  S
Al97        O107   1.900   1_556  S
Al97       O1217   1.912       .  S
Al97       O1238   1.896       .  S
Al97       O1230   1.786   1_556  S
O98         C105   1.261       .  A
O98       Al1234   1.906       .  S
O99         C108   1.261       .  A
O99        Al106   1.919       .  S
O100      Al1234   1.897       .  S
O101        C108   1.256       .  A
O102       Al106   1.786       .  S
O102      Al1225   1.786       .  S
O103        C104   1.261       .  A
C104        C854   1.483       .  S
C105        C638   1.483       .  S
Al106      O1226   1.902       .  S
Al106      O1228   1.904       .  S
C108        C653   1.465       .  S
C109        O110   1.262       .  A
C109        C614   1.476       .  S
O110      Al1225   1.902       .  S
O111        C126   1.262       .  A
O111       Al119   1.913       .  S
C112        O122   1.257       .  A
C112        O113   1.261       .  A
C112        C581   1.475       .  S
O113       Al115   1.911       .  S
O114        C116   1.258       .  A
O114       Al115   1.876       .  S
Al115       O123   1.892       .  S
Al115       O125   1.911       .  S
Al115       O124   1.780       .  S
C116        O129   1.265       .  A
C116        C734   1.475       .  S
O117        C127   1.261       .  A
O117       Al119   1.901       .  S
O118        C131   1.257       .  A
O118       Al128   1.879       .  S
Al119       O132   1.914       .  S
Al119       O129   1.920       .  S
Al119       O124   1.786       .  S
O120        C127   1.263       .  A
O120       Al128   1.912       .  S
O121        C130   1.264       .  A
O121       Al128   1.918       .  S
O122       Al128   1.892       .  S
O123        C130   1.261       .  A
O124       Al128   1.780       .  S
O125        C126   1.262       .  A
C126        C701   1.487       .  S
C127        C629   1.488       .  S
C130        C566   1.475       .  S
C131        O132   1.261       .  A
C131        C605   1.467       .  S
O133        C148   1.263       .  A
O133       Al141   1.915       .  S
C134        O144   1.260       .  A
C134        O135   1.259       .  A
C134        C677   1.484       .  S
O135       Al137   1.908       .  S
O136        C138   1.260       .  A
O136       Al137   1.877       .  S
Al137       O145   1.880       .  S
Al137       O147   1.905       .  S
Al137       O146   1.778       .  S
C138        O151   1.266       .  A
C138        C494   1.470       .  S
O139        C149   1.261       .  A
O139       Al141   1.899       .  S
O140        C153   1.256       .  A
O140       Al150   1.878       .  S
Al141       O154   1.923       .  S
Al141       O151   1.926       .  S
Al141       O146   1.788       .  S
O142        C149   1.263       .  A
O142       Al150   1.914       .  S
O143        C152   1.265       .  A
O143       Al150   1.916       .  S
O144       Al150   1.905       .  S
O145        C152   1.259       .  A
O146       Al150   1.780       .  S
O147        C148   1.260       .  A
C148        C470   1.487       .  S
C149        C518   1.482       .  S
C152        C662   1.477       .  S
C153        O154   1.264       .  A
C153        C542   1.481       .  S
O155        C170   1.262       .  A
O155      Al1291   1.913       .  S
C156        O166   1.258       .  A
C156        O157   1.253       .  A
C156        C590   1.488       .  S
O157      Al1287   1.889       .  S
O158        C160   1.256       .  A
O158      Al1287   1.878       .  S
Al159       O167   1.883       .  S
Al159       O169   1.904       .  S
Al159      O1285   1.904       .  S
Al159      O1286   1.877       .  S
Al159       O168   1.782       .  S
C160        O173   1.263       .  A
C160        C389   1.466       .  S
O161        C171   1.263       .  A
O161       Al163   1.904   1_554  S
O162        C175   1.258       .  A
O162       Al172   1.884       .  S
Al163       O173   1.930   1_556  S
Al163      O1283   1.912       .  S
Al163      O1304   1.917       .  S
Al163      O1296   1.794   1_556  S
O164        C171   1.262       .  A
O164      Al1300   1.909       .  S
O165        C174   1.265       .  A
O165       Al172   1.929       .  S
O166      Al1300   1.906       .  S
O167        C174   1.259       .  A
O168       Al172   1.786       .  S
O168      Al1291   1.793       .  S
O169        C170   1.261       .  A
C170        C365   1.483       .  S
C171        C422   1.485       .  S
Al172      O1292   1.915       .  S
Al172      O1294   1.898       .  S
C174        C557   1.475       .  S
C175        O176   1.263       .  A
C175        C437   1.475       .  S
O176      Al1291   1.920       .  S
O177        C192   1.259       .  A
O177      Al1313   1.907       .  S
C178        O188   1.260       .  A
C178        O179   1.263       .  A
C178        C341   1.485       .  S
O179      Al1309   1.918   1_554  S
O180        C182   1.257       .  A
O180      Al1309   1.879   1_554  S
Al181       O189   1.888       .  S
Al181       O191   1.910       .  S
Al181      O1307   1.921       .  S
Al181      O1308   1.881       .  S
Al181       O190   1.782       .  S
C182        O195   1.266       .  A
C182       C1013   1.479       .  S
O183        C193   1.264       .  A
O183       Al185   1.904       .  S
O184        C197   1.259       .  A
O184       Al194   1.888       .  S
Al185       O195   1.929       .  S
Al185      O1305   1.907   1_554  S
Al185      O1326   1.918   1_554  S
Al185      O1318   1.782   1_554  S
O186        C193   1.263       .  A
O186      Al1322   1.915   1_554  S
O187        C196   1.263       .  A
O187       Al194   1.916       .  S
O188      Al1322   1.900   1_554  S
O189        C196   1.259       .  A
O190       Al194   1.781       .  S
O190      Al1313   1.787       .  S
O191        C192   1.259       .  A
C192        C989   1.471       .  S
C193        C509   1.487       .  S
Al194      O1314   1.912       .  S
Al194      O1316   1.899       .  S
C196        C317   1.469       .  S
C197        O198   1.261       .  A
C197        C533   1.465       .  S
O198      Al1313   1.911       .  S
O199        C214   1.259       .  A
O199       Al207   1.901       .  S
C200        O210   1.261       .  A
C200        O201   1.263       .  A
C200        C350   1.479       .  S
O201       Al203   1.916       .  S
O202        C204   1.258       .  A
O202       Al203   1.882       .  S
Al203       O211   1.885       .  S
Al203       O213   1.916       .  S
Al203       O212   1.781       .  S
C204        O217   1.264       .  A
C204        C926   1.474       .  S
O205        C215   1.260       .  A
O205       Al207   1.902       .  S
O206        C219   1.260       .  A
O206       Al216   1.885       .  S
Al207       O220   1.933       .  S
Al207       O217   1.930       .  S
Al207       O212   1.790       .  S
O208        C215   1.259       .  A
O208       Al216   1.904       .  S
O209        C218   1.260       .  A
O209       Al216   1.913       .  S
O210       Al216   1.907       .  S
O211        C218   1.260       .  A
O212       Al216   1.787       .  S
O213        C214   1.261       .  A
C214        C893   1.476       .  S
C215        C413   1.472       .  S
C218        C326   1.487       .  S
C219        O220   1.267       .  A
C219        C446   1.480       .  S
O221        C236   1.261       .  A
O221      Al1357   1.908       .  S
C222        O232   1.260       .  A
C222        O223   1.261       .  A
C222        C821   1.474       .  S
O223      Al1353   1.914   1_554  S
O224        C226   1.262       .  A
O224      Al1353   1.888   1_554  S
Al225       O233   1.894       .  S
Al225       O235   1.905       .  S
Al225      O1351   1.913       .  S
Al225      O1352   1.896       .  S
Al225       O234   1.781       .  S
C226        O239   1.262       .  A
C226        C485   1.480       .  S
O227        C237   1.261       .  A
O227       Al229   1.901       .  S
O228        C241   1.258       .  A
O228       Al238   1.883       .  S
Al229       O239   1.909       .  S
Al229      O1349   1.905   1_554  S
Al229      O1370   1.914   1_554  S
Al229      O1362   1.782   1_554  S
O230        C237   1.260       .  A
O230      Al1366   1.909   1_554  S
O231        C240   1.259       .  A
O231       Al238   1.906       .  S
O232      Al1366   1.904   1_554  S
O233        C240   1.261       .  A
O234       Al238   1.784       .  S
O234      Al1357   1.787       .  S
O235        C236   1.261       .  A
C236        C461   1.488       .  S
C237        C293   1.485       .  S
Al238      O1358   1.906       .  S
Al238      O1360   1.900       .  S
C240        C806   1.486       .  S
C241        O242   1.262       .  A
C241        C269   1.476       .  S
O242      Al1357   1.913       .  S
O243        C258   1.261       .  A
O243       Al251   1.909       .  S
C244        O254   1.260       .  A
C244        O245   1.260       .  A
C244        C773   1.483       .  S
O245       Al247   1.911       .  S
O246        C248   1.262       .  A
O246       Al247   1.887       .  S
Al247       O255   1.881       .  S
Al247       O257   1.918       .  S
Al247       O256   1.781       .  S
C248        O261   1.262       .  A
C248        C398   1.487       .  S
O249        C259   1.261       .  A
O249       Al251   1.893       .  S
O250        C263   1.260       .  A
O250       Al260   1.895       .  S
Al251       O264   1.907       .  S
Al251       O261   1.916       .  S
Al251       O256   1.786       .  S
O252        C259   1.265       .  A
O252       Al260   1.916       .  S
O253        C262   1.267       .  A
O253       Al260   1.931       .  S
O254       Al260   1.913       .  S
O255        C262   1.261       .  A
O256       Al260   1.783       .  S
O257        C258   1.262       .  A
C258        C374   1.482       .  S
C259        C302   1.479       .  S
C262        C749   1.479       .  S
C263        O264   1.260       .  A
C263        C278   1.479       .  S
C265        C266   1.400       .  A
C265        C270   1.396       .  A
C265        H275   1.084       .  S
C266        C271   1.473       .  S
C266        C267   1.409       .  A
C267        C268   1.398       .  A
C267        S272   1.804       .  S
C268        C269   1.406       .  A
C268        H273   1.084       .  S
C269        C270   1.416       .  A
C270        S274   1.806       .  S
C271        C276   1.406       .  A
C271        C280   1.399       .  A
S272        H288   1.404       .  S
S274        H285   1.405       .  S
C276        C277   1.399       .  A
C276        S281   1.807       .  S
C277        C278   1.403       .  A
C277        H282   1.079       .  S
C278        C279   1.419       .  A
C279        C280   1.399       .  A
C279        S283   1.802       .  S
C280        H284   1.084       .  S
S281        H286   1.407       .  S
S283        H287   1.403       .  S
C289        C290   1.399       .  A
C289        C294   1.394       .  A
C289        H299   1.084       .  S
C290        C295   1.479       .  S
C290        C291   1.411       .  A
C291        C292   1.403       .  A
C291        S296   1.803       .  S
C292        C293   1.408       .  A
C292        H297   1.084       .  S
C293        C294   1.418       .  A
C294        S298   1.799       .  S
C295        C300   1.408       .  A
C295        C304   1.402       .  A
S296        H312   1.406       .  S
S298        H309   1.404       .  S
C300        C301   1.400       .  A
C300        S305   1.808       .  S
C301        C302   1.405       .  A
C301        H306   1.083       .  S
C302        C303   1.415       .  A
C303        C304   1.401       .  A
C303        S307   1.803       .  S
C304        H308   1.084       .  S
S305        H310   1.407       .  S
S307        H311   1.407       .  S
C313        C314   1.404       .  A
C313        C318   1.399       .  A
C313        H323   1.084       .  S
C314        C319   1.479       .  S
C314        C315   1.413       .  A
C315        C316   1.395       .  A
C315        S320   1.805       .  S
C316        C317   1.402       .  A
C316        H321   1.084       .  S
C317        C318   1.412       .  A
C318        S322   1.805       .  S
C319        C324   1.408       .  A
C319        C328   1.400       .  A
S320        H336   1.406       .  S
S322        H333   1.407       .  S
C324        C325   1.400       .  A
C324        S329   1.808       .  S
C325        C326   1.408       .  A
C325        H330   1.082       .  S
C326        C327   1.420       .  A
C327        C328   1.397       .  A
C327        S331   1.801       .  S
C328        H332   1.084       .  S
S329        H334   1.407       .  S
S331        H335   1.407       .  S
C337        C338   1.403       .  A
C337        C342   1.403       .  A
C337        H347   1.084       .  S
C338        C343   1.484       .  S
C338        C339   1.412       .  A
C339        C340   1.397       .  A
C339        S344   1.805       .  S
C340        C341   1.406       .  A
C340        H345   1.084       .  S
C341        C342   1.417       .  A
C342        S346   1.801       .  S
C343        C348   1.412       .  A
C343        C352   1.400       .  A
S344        H360   1.406       .  S
S346        H357   1.407       .  S
C348        C349   1.408       .  A
C348        S353   1.805       .  S
C349        C350   1.405       .  A
C349        H354   1.083       .  S
C350        C351   1.414       .  A
C351        C352   1.395       .  A
C351        S355   1.802       .  S
C352        H356   1.084       .  S
S353        H358   1.407       .  S
S355        H359   1.404       .  S
C361        C362   1.406       .  A
C361        C366   1.407       .  A
C361        H371   1.084       .  S
C362        C367   1.486   1_545  S
C362        C363   1.411       .  A
C363        C364   1.396       .  A
C363        S368   1.805       .  S
C364        C365   1.405       .  A
C364        H369   1.084       .  S
C365        C366   1.415       .  A
C366        S370   1.801       .  S
C367        C372   1.412       .  A
C367        C376   1.402       .  A
S368        H384   1.406   1_545  S
S370        H381   1.407       .  S
C372        C373   1.407       .  A
C372        S377   1.806       .  S
C373        C374   1.404       .  A
C373        H378   1.083       .  S
C374        C375   1.416       .  A
C375        C376   1.400       .  A
C375        S379   1.804       .  S
C376        H380   1.084   1_565  S
S377        H382   1.407       .  S
S379        H383   1.406       .  S
C385        C386   1.403       .  A
C385        C390   1.396       .  A
C385        H395   1.084       .  S
C386        C391   1.476   1_545  S
C386        C387   1.412   1_545  A
C387        C388   1.400   1_565  A
C387        S392   1.805       .  S
C388        C389   1.402       .  A
C388        H393   1.084       .  S
C389        C390   1.410       .  A
C390        S394   1.805       .  S
C391        C396   1.407       .  A
C391        C400   1.399       .  A
S392        H408   1.405       .  S
S394        H405   1.407       .  S
C396        C397   1.398       .  A
C396        S401   1.808       .  S
C397        C398   1.408       .  A
C397        H402   1.082       .  S
C398        C399   1.421       .  A
C399        C400   1.399       .  A
C399        S403   1.800       .  S
C400        H404   1.084       .  S
S401        H406   1.407       .  S
S403        H407   1.408       .  S
C409        C410   1.406       .  A
C409        C414   1.402       .  A
C409        H419   1.084       .  S
C410        C415   1.487       .  S
C410        C411   1.414       .  A
C411        C412   1.398       .  A
C411        S416   1.805       .  S
C412        C413   1.402       .  A
C412        H417   1.084       .  S
C413        C414   1.411       .  A
C414        S418   1.804       .  S
C415        C420   1.411       .  A
C415        C424   1.402       .  A
S416        H432   1.406       .  S
S418        H429   1.407       .  S
C420        C421   1.405       .  A
C420        S425   1.806       .  S
C421        C422   1.405       .  A
C421        H426   1.082       .  S
C422        C423   1.416       .  A
C423        C424   1.397       .  A
C423        S427   1.800       .  S
C424        H428   1.084       .  S
S425        H430   1.407       .  S
S427        H431   1.407       .  S
C433        C434   1.404       .  A
C433        C438   1.401       .  A
C433        H443   1.084       .  S
C434        C439   1.482       .  S
C434        C435   1.414       .  A
C435        C436   1.399       .  A
C435        S440   1.806       .  S
C436        C437   1.403       .  A
C436        H441   1.084       .  S
C437        C438   1.412       .  A
C438        S442   1.802       .  S
C439        C444   1.410       .  A
C439        C448   1.403       .  A
S440        H456   1.405       .  S
S442        H453   1.407       .  S
C444        C445   1.403       .  A
C444        S449   1.808       .  S
C445        C446   1.406       .  A
C445        H450   1.083       .  S
C446        C447   1.413       .  A
C447        C448   1.401       .  A
C447        S451   1.801       .  S
C448        H452   1.084       .  S
S449        H454   1.407       .  S
S451        H455   1.407       .  S
C457        C458   1.405   1_455  A
C457        C462   1.404       .  A
C457        H467   1.084       .  S
C458        C463   1.486       .  S
C458        C459   1.412       .  A
C459        C460   1.397   1_655  A
C459        S464   1.805       .  S
C460        C461   1.407       .  A
C460        H465   1.084       .  S
C461        C462   1.417       .  A
C462        S466   1.802       .  S
C463        C468   1.412       .  A
C463        C472   1.399       .  A
S464        H480   1.406       .  S
S466        H477   1.405       .  S
C468        C469   1.408       .  A
C468        S473   1.806       .  S
C469        C470   1.407       .  A
C469        H474   1.083       .  S
C470        C471   1.419       .  A
C471        C472   1.397       .  A
C471        S475   1.804       .  S
C472        H476   1.084   1_655  S
S473        H478   1.407       .  S
S475        H479   1.404       .  S
C481        C482   1.398   1_455  A
C481        C486   1.396       .  A
C481        H491   1.084   1_455  S
C482        C487   1.471       .  S
C482        C483   1.409   1_655  A
C483        C484   1.396       .  A
C483        S488   1.805       .  S
C484        C485   1.406       .  A
C484        H489   1.084       .  S
C485        C486   1.419       .  A
C486        S490   1.801       .  S
C487        C492   1.406       .  A
C487        C496   1.401       .  A
S488        H504   1.406       .  S
S490        H501   1.408       .  S
C492        C493   1.399       .  A
C492        S497   1.806   1_655  S
C493        C494   1.404       .  A
C493        H498   1.082       .  S
C494        C495   1.412       .  A
C495        C496   1.399       .  A
C495        S499   1.809       .  S
C496        H500   1.083       .  S
S497        H502   1.407   1_455  S
S499        H503   1.407       .  S
C505        C506   1.400       .  A
C505        C510   1.397       .  A
C505        H515   1.084       .  S
C506        C511   1.484       .  S
C506        C507   1.413       .  A
C507        C508   1.402       .  A
C507        S512   1.803       .  S
C508        C509   1.407       .  A
C508        H513   1.084       .  S
C509        C510   1.418       .  A
C510        S514   1.800       .  S
C511        C516   1.410       .  A
C511        C520   1.403       .  A
S512        H528   1.405       .  S
S514        H525   1.406       .  S
C516        C517   1.402       .  A
C516        S521   1.808       .  S
C517        C518   1.405       .  A
C517        H522   1.083       .  S
C518        C519   1.415       .  A
C519        C520   1.403       .  A
C519        S523   1.803       .  S
C520        H524   1.084       .  S
S521        H526   1.407       .  S
S523        H527   1.407       .  S
C529        C530   1.403       .  A
C529        C534   1.399       .  A
C529        H539   1.084       .  S
C530        C535   1.478       .  S
C530        C531   1.414       .  A
C531        C532   1.396       .  A
C531        S536   1.805       .  S
C532        C533   1.400       .  A
C532        H537   1.084       .  S
C533        C534   1.411       .  A
C534        S538   1.802       .  S
C535        C540   1.409       .  A
C535        C544   1.399       .  A
S536        H552   1.406       .  S
S538        H549   1.405       .  S
C540        C541   1.405       .  A
C540        S545   1.806       .  S
C541        C542   1.407       .  A
C541        H546   1.083       .  S
C542        C543   1.418       .  A
C543        C544   1.393       .  A
C543        S547   1.803       .  S
C544        H548   1.084       .  S
S545        H550   1.407       .  S
S547        H551   1.408       .  S
C553        C554   1.400       .  A
C553        C558   1.394       .  A
C553        H563   1.084       .  S
C554        C559   1.480       .  S
C554        C555   1.416       .  A
C555        C556   1.404       .  A
C555        S560   1.805       .  S
C556        C557   1.404       .  A
C556        H561   1.084       .  S
C557        C558   1.413       .  A
C558        S562   1.802       .  S
C559        C564   1.410       .  A
C559        C568   1.401       .  A
S560        H576   1.405       .  S
S562        H573   1.406       .  S
C564        C565   1.404       .  A
C564        S569   1.806       .  S
C565        C566   1.405       .  A
C565        H570   1.083       .  S
C566        C567   1.413       .  A
C567        C568   1.395       .  A
C567        S571   1.802       .  S
C568        H572   1.084       .  S
S569        H574   1.407       .  S
S571        H575   1.404       .  S
C577        C578   1.403       .  A
C577        C582   1.401       .  A
C577        H587   1.084       .  S
C578        C583   1.476       .  S
C578        C579   1.410       .  A
C579        C580   1.394       .  A
C579        S584   1.805       .  S
C580        C581   1.404       .  A
C580        H585   1.083       .  S
C581        C582   1.413       .  A
C582        S586   1.800       .  S
C583        C588   1.407       .  A
C583        C592   1.396       .  A
S584        H600   1.406       .  S
S586        H597   1.407       .  S
C588        C589   1.406       .  A
C588        S593   1.805       .  S
C589        C590   1.409       .  A
C589        H594   1.082       .  S
C590        C591   1.422       .  A
C591        C592   1.393       .  A
C591        S595   1.802       .  S
C592        H596   1.085       .  S
S593        H598   1.407       .  S
S595        H599   1.405       .  S
C601        C602   1.400       .  A
C601        C606   1.397       .  A
C601        H611   1.084       .  S
C602        C607   1.472       .  S
C602        C603   1.411       .  A
C603        C604   1.396       .  A
C603        S608   1.804       .  S
C604        C605   1.402       .  A
C604        H609   1.084       .  S
C605        C606   1.413       .  A
C606        S610   1.801       .  S
C607        C612   1.405       .  A
C607        C616   1.402       .  A
S608        H624   1.405       .  S
S610        H621   1.407       .  S
C612        C613   1.398       .  A
C612        S617   1.807       .  S
C613        C614   1.407       .  A
C613        H618   1.083       .  S
C614        C615   1.415       .  A
C615        C616   1.399       .  A
C615        S619   1.804       .  S
C616        H620   1.084       .  S
S617        H622   1.407       .  S
S619        H623   1.408       .  S
C625        C626   1.403       .  A
C625        C630   1.402       .  A
C625        H635   1.084       .  S
C626        C631   1.483       .  S
C626        C627   1.411       .  A
C627        C628   1.398       .  A
C627        S632   1.805       .  S
C628        C629   1.408       .  A
C628        H633   1.084       .  S
C629        C630   1.418       .  A
C630        S634   1.802       .  S
C631        C636   1.410       .  A
C631        C640   1.400       .  A
S632        H648   1.406       .  S
S634        H645   1.406       .  S
C636        C637   1.406       .  A
C636        S641   1.806       .  S
C637        C638   1.405       .  A
C637        H642   1.083       .  S
C638        C639   1.417       .  A
C639        C640   1.401       .  A
C639        S643   1.810       .  S
C640        H644   1.083       .  S
S641        H646   1.407       .  S
S643        H647   1.406       .  S
C649        C650   1.400       .  A
C649        C654   1.397       .  A
C649        H659   1.084       .  S
C650        C655   1.470       .  S
C650        C651   1.412       .  A
C651        C652   1.396       .  A
C651        S656   1.805       .  S
C652        C653   1.401       .  A
C652        H657   1.084       .  S
C653        C654   1.412       .  A
C654        S658   1.802       .  S
C655        C660   1.405       .  A
C655        C664   1.400       .  A
S656        H672   1.405       .  S
S658        H669   1.405       .  S
C660        C661   1.399       .  A
C660        S665   1.807       .  S
C661        C662   1.407       .  A
C661        H666   1.082       .  S
C662        C663   1.417       .  A
C663        C664   1.397       .  A
C663        S667   1.805       .  S
C664        H668   1.084       .  S
S665        H670   1.407       .  S
S667        H671   1.408       .  S
C673        C674   1.400       .  A
C673        C678   1.399       .  A
C673        H683   1.084       .  S
C674        C679   1.481       .  S
C674        C675   1.413       .  A
C675        C676   1.402       .  A
C675        S680   1.803       .  S
C676        C677   1.405       .  A
C676        H681   1.084       .  S
C677        C678   1.419       .  A
C678        S682   1.804       .  S
C679        C684   1.408       .  A
C679        C688   1.403       .  A
S680        H696   1.406       .  S
S682        H693   1.407       .  S
C684        C685   1.400       .  A
C684        S689   1.809       .  S
C685        C686   1.407       .  A
C685        H690   1.082       .  S
C686        C687   1.418       .  A
C687        C688   1.403       .  A
C687        S691   1.801       .  S
C688        H692   1.084       .  S
S689        H694   1.406       .  S
S691        H695   1.407       .  S
C697        C698   1.405   1_545  A
C697        C702   1.405       .  A
C697        H707   1.084       .  S
C698        C703   1.489       .  S
C698        C699   1.412       .  A
C699        C700   1.399   1_565  A
C699        S704   1.805       .  S
C700        C701   1.406       .  A
C700        H705   1.084       .  S
C701        C702   1.415       .  A
C702        S706   1.799       .  S
C703        C708   1.411       .  A
C703        C712   1.401       .  A
S704        H720   1.406       .  S
S706        H717   1.407       .  S
C708        C709   1.409       .  A
C708        S713   1.805       .  S
C709        C710   1.406       .  A
C709        H714   1.083       .  S
C710        C711   1.416       .  A
C711        C712   1.398       .  A
C711        S715   1.798       .  S
C712        H716   1.084       .  S
S713        H718   1.407       .  S
S715        H719   1.407       .  S
C721        C722   1.400       .  A
C721        C726   1.400       .  A
C721        H731   1.084       .  S
C722        C727   1.471   1_565  S
C722        C723   1.410       .  A
C723        C724   1.394       .  A
C723        S728   1.805       .  S
C724        C725   1.403       .  A
C724        H729   1.084       .  S
C725        C726   1.416       .  A
C726        S730   1.800       .  S
C727        C732   1.406       .  A
C727        C736   1.399       .  A
S728        H744   1.405       .  S
S730        H741   1.407       .  S
C732        C733   1.402       .  A
C732        S737   1.805   1_545  S
C733        C734   1.407       .  A
C733        H738   1.083       .  S
C734        C735   1.416       .  A
C735        C736   1.394       .  A
C735        S739   1.806       .  S
C736        H740   1.084       .  S
S737        H742   1.407       .  S
S739        H743   1.405       .  S
C745        C746   1.401       .  A
C745        C750   1.399       .  A
C745        H755   1.084       .  S
C746        C751   1.474       .  S
C746        C747   1.411       .  A
C747        C748   1.396       .  A
C747        S752   1.806       .  S
C748        C749   1.405       .  A
C748        H753   1.084       .  S
C749        C750   1.414       .  A
C750        S754   1.798       .  S
C751        C756   1.408       .  A
C751        C760   1.402       .  A
S752        H768   1.405       .  S
S754        H765   1.403       .  S
C756        C757   1.400       .  A
C756        S761   1.807       .  S
C757        C758   1.403       .  A
C757        H762   1.083       .  S
C758        C759   1.411       .  A
C759        C760   1.398       .  A
C759        S763   1.802       .  S
C760        H764   1.084       .  S
S761        H766   1.407       .  S
S763        H767   1.407       .  S
C769        C770   1.401       .  A
C769        C774   1.399       .  A
C769        H779   1.084       .  S
C770        C775   1.489       .  S
C770        C771   1.416       .  A
C771        C772   1.405       .  A
C771        S776   1.804       .  S
C772        C773   1.404       .  A
C772        H777   1.084       .  S
C773        C774   1.416       .  A
C774        S778   1.804       .  S
C775        C780   1.410       .  A
C775        C784   1.406       .  A
S776        H792   1.406       .  S
S778        H789   1.407       .  S
C780        C781   1.401       .  A
C780        S785   1.809       .  S
C781        C782   1.407       .  A
C781        H786   1.083       .  S
C782        C783   1.416       .  A
C783        C784   1.405       .  A
C783        S787   1.803       .  S
C784        H788   1.084       .  S
S785        H790   1.407       .  S
S787        H791   1.407       .  S
C793        C794   1.401       .  A
C793        C798   1.396       .  A
C793        H803   1.084       .  S
C794        C799   1.474       .  S
C794        C795   1.410       .  A
C795        C796   1.399       .  A
C795        S800   1.804       .  S
C796        C797   1.406       .  A
C796        H801   1.084       .  S
C797        C798   1.413       .  A
C798        S802   1.802       .  S
C799        C804   1.406       .  A
C799        C808   1.398       .  A
S800        H816   1.405       .  S
S802        H813   1.406       .  S
C804        C805   1.400       .  A
C804        S809   1.806       .  S
C805        C806   1.408       .  A
C805        H810   1.083       .  S
C806        C807   1.422       .  A
C807        C808   1.397       .  A
C807        S811   1.801       .  S
C808        H812   1.084       .  S
S809        H814   1.407       .  S
S811        H815   1.408       .  S
C817        C818   1.402       .  A
C817        C822   1.398       .  A
C817        H827   1.084       .  S
C818        C823   1.481       .  S
C818        C819   1.414       .  A
C819        C820   1.402       .  A
C819        S824   1.804       .  S
C820        C821   1.403       .  A
C820        H825   1.083       .  S
C821        C822   1.413       .  A
C822        S826   1.804       .  S
C823        C828   1.409       .  A
C823        C832   1.401       .  A
S824        H840   1.405       .  S
S826        H837   1.406   1_554  S
C828        C829   1.402       .  A
C828        S833   1.807       .  S
C829        C830   1.406       .  A
C829        H834   1.083       .  S
C830        C831   1.416       .  A
C831        C832   1.401       .  A
C831        S835   1.801       .  S
C832        H836   1.084       .  S
S833        H838   1.407       .  S
S835        H839   1.407       .  S
C841        C842   1.404   1_455  A
C841        C846   1.404       .  A
C841        H851   1.084       .  S
C842        C847   1.484       .  S
C842        C843   1.411       .  A
C843        C844   1.397   1_655  A
C843        S848   1.804       .  S
C844        C845   1.406       .  A
C844        H849   1.084       .  S
C845        C846   1.416       .  A
C846        S850   1.802       .  S
C847        C852   1.409       .  A
C847        C856   1.400       .  A
S848        H864   1.406       .  S
S850        H861   1.403       .  S
C852        C853   1.408       .  A
C852        S857   1.805       .  S
C853        C854   1.407       .  A
C853        H858   1.083       .  S
C854        C855   1.415       .  A
C855        C856   1.399       .  A
C855        S859   1.807       .  S
C856        H860   1.083       .  S
S857        H862   1.407       .  S
S859        H863   1.406       .  S
C865        C866   1.399       .  A
C865        C870   1.392       .  A
C865        H875   1.084       .  S
C866        C871   1.465   1_455  S
C866        C867   1.409       .  A
C867        C868   1.397       .  A
C867        S872   1.804   1_455  S
C868        C869   1.404       .  A
C868        H873   1.084       .  S
C869        C870   1.412       .  A
C870        S874   1.806       .  S
C871        C876   1.407       .  A
C871        C880   1.397       .  A
S872        H888   1.405       .  S
S874        H885   1.405       .  S
C876        C877   1.397       .  A
C876        S881   1.807       .  S
C877        C878   1.404       .  A
C877        H882   1.083       .  S
C878        C879   1.415       .  A
C879        C880   1.394       .  A
C879        S883   1.800       .  S
C880        H884   1.084       .  S
S881        H886   1.407       .  S
S883        H887   1.407       .  S
C889        C890   1.404       .  A
C889        C894   1.399       .  A
C889        H899   1.084       .  S
C890        C895   1.488       .  S
C890        C891   1.414       .  A
C891        C892   1.405       .  A
C891        S896   1.803       .  S
C892        C893   1.403       .  A
C892        H897   1.083       .  S
C893        C894   1.411       .  A
C894        S898   1.803       .  S
C895        C900   1.411       .  A
C895        C904   1.406       .  A
S896        H912   1.406       .  S
S898        H909   1.407       .  S
C900        C901   1.403       .  A
C900        S905   1.807       .  S
C901        C902   1.403       .  A
C901        H906   1.083       .  S
C902        C903   1.413       .  A
C903        C904   1.404       .  A
C903        S907   1.805       .  S
C904        H908   1.084       .  S
S905        H910   1.407       .  S
S907        H911   1.406       .  S
C913        C914   1.401       .  A
C913        C918   1.398       .  A
C913        H923   1.084       .  S
C914        C919   1.481       .  S
C914        C915   1.412       .  A
C915        C916   1.403       .  A
C915        S920   1.803       .  S
C916        C917   1.406       .  A
C916        H921   1.084       .  S
C917        C918   1.417       .  A
C918        S922   1.806       .  S
C919        C924   1.410       .  A
C919        C928   1.402       .  A
S920        H936   1.405       .  S
S922        H933   1.408       .  S
C924        C925   1.403       .  A
C924        S929   1.806       .  S
C925        C926   1.403       .  A
C925        H930   1.083       .  S
C926        C927   1.412       .  A
C927        C928   1.401       .  A
C927        S931   1.800       .  S
C928        H932   1.084       .  S
S929        H934   1.407       .  S
S931        H935   1.405       .  S
C937        C938   1.399       .  A
C937        C942   1.394       .  A
C937        H947   1.084       .  S
C938        C943   1.480       .  S
C938        C939   1.414       .  A
C939        C940   1.402       .  A
C939        S944   1.804       .  S
C940        C941   1.405       .  A
C940        H945   1.084       .  S
C941        C942   1.421       .  A
C942        S946   1.804       .  S
C943        C948   1.412       .  A
C943        C952   1.401       .  A
S944        H960   1.405       .  S
S946        H957   1.403       .  S
C948        C949   1.404       .  A
C948        S953   1.807       .  S
C949        C950   1.403       .  A
C949        H954   1.081       .  S
C950        C951   1.411       .  A
C951        C952   1.394       .  A
C951        S955   1.801       .  S
C952        H956   1.084       .  S
S953        H958   1.407       .  S
S955        H959   1.405       .  S
C961        C962   1.401       .  A
C961        C966   1.397       .  A
C961        H971   1.084       .  S
C962        C967   1.483       .  S
C962        C963   1.416       .  A
C963        C964   1.403       .  A
C963        S968   1.804       .  S
C964        C965   1.402       .  A
C964        H969   1.084       .  S
C965        C966   1.412       .  A
C966        S970   1.802       .  S
C967        C972   1.408       .  A
C967        C976   1.402       .  A
S968        H984   1.405       .  S
S970        H981   1.405       .  S
C972        C973   1.403       .  A
C972        S977   1.808       .  S
C973        C974   1.410       .  A
C973        H978   1.082       .  S
C974        C975   1.419       .  A
C975        C976   1.401       .  A
C975        S979   1.802       .  S
C976        H980   1.084       .  S
S977        H982   1.407       .  S
S979        H983   1.406       .  S
C985        C986   1.400       .  A
C985        C990   1.397       .  A
C985        H995   1.084       .  S
C986        C991   1.478       .  S
C986        C987   1.414       .  A
C987        C988   1.401       .  A
C987        S992   1.804       .  S
C988        C989   1.401       .  A
C988        H993   1.084       .  S
C989        C990   1.413       .  A
C990        S994   1.802       .  S
C991        C996   1.407       .  A
C991       C1000   1.403       .  A
S992       H1008   1.406       .  S
S994       H1005   1.405       .  S
C996        C997   1.397       .  A
C996       S1001   1.810       .  S
C997        C998   1.408       .  A
C997       H1002   1.083       .  S
C998        C999   1.416       .  A
C999       C1000   1.404       .  A
C999       S1003   1.800       .  S
C1000      H1004   1.084       .  S
S1001      H1006   1.407       .  S
S1003      H1007   1.408       .  S
C1009      C1010   1.398       .  A
C1009      C1014   1.392       .  A
C1009      H1019   1.085       .  S
C1010      C1015   1.472       .  S
C1010      C1011   1.410       .  A
C1011      C1012   1.400       .  A
C1011      S1016   1.804       .  S
C1012      C1013   1.407       .  A
C1012      H1017   1.084       .  S
C1013      C1014   1.419       .  A
C1014      S1018   1.803       .  S
C1015      C1020   1.410       .  A
C1015      C1024   1.401       .  A
S1016      H1032   1.406       .  S
S1018      H1029   1.407       .  S
C1020      C1021   1.400       .  A
C1020      S1025   1.806       .  S
C1021      C1022   1.399       .  A
C1021      H1026   1.083       .  S
C1022      C1023   1.410       .  A
C1023      C1024   1.395       .  A
C1023      S1027   1.803       .  S
C1024      H1028   1.084       .  S
S1025      H1030   1.407       .  S
S1027      H1031   1.405       .  S
C1033      C1034   1.402       .  A
C1033      C1038   1.406       .  A
C1033      H1043   1.083       .  S
C1034      C1039   1.481       .  S
C1034      C1035   1.409       .  A
C1035      C1036   1.398       .  A
C1035      S1040   1.805       .  S
C1036      C1037   1.408       .  A
C1036      H1041   1.084       .  S
C1037      C1038   1.418       .  A
C1038      S1042   1.807       .  S
C1039      C1044   1.411       .  A
C1039      C1048   1.401       .  A
S1040      H1056   1.406       .  S
S1042      H1053   1.406       .  S
C1044      C1045   1.405       .  A
C1044      S1049   1.805       .  S
C1045      C1046   1.403       .  A
C1045      H1050   1.083       .  S
C1046      C1047   1.413       .  A
C1047      C1048   1.397       .  A
C1047      S1051   1.803       .  S
C1048      H1052   1.084       .  S
S1049      H1054   1.407       .  S
S1051      H1055   1.406       .  S
C1057      C1058   1.400       .  A
C1057      C1062   1.395       .  A
C1057      H1067   1.084       .  S
C1058      C1063   1.470       .  S
C1058      C1059   1.411       .  A
C1059      C1060   1.396       .  A
C1059      S1064   1.805       .  S
C1060      C1061   1.402       .  A
C1060      H1065   1.084       .  S
C1061      C1062   1.411       .  A
C1062      S1066   1.798       .  S
C1063      C1068   1.408       .  A
C1063      C1072   1.402       .  A
S1064      H1080   1.405       .  S
S1066      H1077   1.407       .  S
C1068      C1069   1.397       .  A
C1068      S1073   1.808       .  S
C1069      C1070   1.402       .  A
C1069      H1074   1.083       .  S
C1070      C1071   1.410       .  A
C1071      C1072   1.397       .  A
C1071      S1075   1.801       .  S
C1072      H1076   1.084       .  S
S1073      H1078   1.407       .  S
S1075      H1079   1.407       .  S
C1081      C1082   1.405       .  A
C1081      C1086   1.405       .  A
C1081      H1091   1.084       .  S
C1082      C1087   1.486       .  S
C1082      C1083   1.411       .  A
C1083      C1084   1.398       .  A
C1083      S1088   1.805       .  S
C1084      C1085   1.406       .  A
C1084      H1089   1.083       .  S
C1085      C1086   1.416       .  A
C1086      S1090   1.803       .  S
C1087      C1092   1.409       .  A
C1087      C1096   1.398       .  A
S1088      H1104   1.406       .  S
S1090      H1101   1.407       .  S
C1092      C1093   1.409       .  A
C1092      S1097   1.805       .  S
C1093      C1094   1.411       .  A
C1093      H1098   1.082       .  S
C1094      C1095   1.423       .  A
C1095      C1096   1.397       .  A
C1095      S1099   1.801       .  S
C1096      H1100   1.084       .  S
S1097      H1102   1.407       .  S
S1099      H1103   1.407       .  S
C1105      C1106   1.401       .  A
C1105      C1110   1.396       .  A
C1105      H1115   1.084       .  S
C1106      C1111   1.482       .  S
C1106      C1107   1.415       .  A
C1107      C1108   1.404       .  A
C1107      S1112   1.804       .  S
C1108      C1109   1.405       .  A
C1108      H1113   1.084       .  S
C1109      C1110   1.411       .  A
C1110      S1114   1.799       .  S
C1111      C1116   1.410       .  A
C1111      C1120   1.400       .  A
S1112      H1128   1.405       .  S
S1114      H1125   1.407       .  S
C1116      C1117   1.407       .  A
C1116      S1121   1.806       .  S
C1117      C1118   1.406       .  A
C1117      H1122   1.083       .  S
C1118      C1119   1.415       .  A
C1119      C1120   1.397       .  A
C1119      S1123   1.802       .  S
C1120      H1124   1.084       .  S
S1121      H1126   1.407       .  S
S1123      H1127   1.407       .  S
O1129      C1144   1.265       .  A
O1129     Al1137   1.921       .  S
C1130      O1140   1.258       .  A
C1130      O1131   1.259       .  A
C1130      C2165   1.482       .  S
O1131     Al1133   1.900       .  S
O1132      C1134   1.257       .  A
O1132     Al1133   1.879       .  S
Al1133     O1141   1.880       .  S
Al1133     O1143   1.886       .  S
Al1133     O1142   1.783       .  S
C1134      O1147   1.260       .  A
C1134      C2150   1.462       .  S
O1135      C1145   1.265       .  A
O1135     Al1137   1.914       .  S
O1136      C1149   1.258       .  A
O1136     Al1146   1.885       .  S
Al1137     O1150   1.918       .  S
Al1137     O1147   1.916       .  S
Al1137     O1142   1.794       .  S
O1138      C1145   1.261       .  A
O1138     Al1146   1.908       .  S
O1139      C1148   1.262       .  A
O1139     Al1146   1.919       .  S
O1140     Al1146   1.898       .  S
O1141      C1148   1.257       .  A
O1142     Al1146   1.783       .  S
O1143      C1144   1.260       .  A
C1144      C2126   1.490       .  S
C1145      C2222   1.495       .  S
C1148      C2198   1.472       .  S
C1149      O1150   1.261       .  A
C1149      C2246   1.477       .  S
O1151      C1166   1.261       .  A
C1152      O1162   1.258       .  A
C1152      O1153   1.261       .  A
C1152      C2174   1.471       .  S
O1154      C1156   1.260       .  A
Al1155     O1163   1.888   1_554  S
Al1155     O1165   1.915   1_554  S
Al1155     O1164   1.780       .  S
C1156      O1169   1.270       .  A
C1156      C2045   1.482       .  S
O1157      C1167   1.261       .  A
O1157     Al1159   1.900       .  S
O1158      C1171   1.255       .  A
O1158     Al1168   1.870   1_556  S
Al1159     O1169   1.943       .  S
O1160      C1167   1.263       .  A
O1161      C1170   1.265       .  A
O1161     Al1168   1.923   1_556  S
O1163      C1170   1.261       .  A
O1164     Al1168   1.778       .  S
O1165      C1166   1.262       .  A
C1166      C2030   1.484       .  S
C1167      C2093   1.477       .  S
C1170      C2189   1.471       .  S
C1171      O1172   1.268       .  A
C1171      C2069   1.483       .  S
O1173      C1188   1.260       .  A
O1173     Al1181   1.910       .  S
C1174      O1184   1.257       .  A
C1174      O1175   1.261       .  A
C1174      C1958   1.487       .  S
O1175     Al1177   1.914       .  S
O1176      C1178   1.258       .  A
O1176     Al1177   1.871       .  S
Al1177     O1185   1.872       .  S
Al1177     O1187   1.917       .  S
Al1177     O1186   1.783       .  S
C1178      O1191   1.265       .  A
C1178      C1997   1.467       .  S
O1179      C1189   1.259       .  A
O1179     Al1181   1.897       .  S
O1180      C1193   1.260       .  A
O1180     Al1190   1.892       .  S
Al1181     O1194   1.907       .  S
Al1181     O1191   1.917       .  S
Al1181     O1186   1.790       .  S
O1182      C1189   1.262       .  A
O1182     Al1190   1.908       .  S
O1183      C1192   1.267       .  A
O1183     Al1190   1.928       .  S
O1184     Al1190   1.900       .  S
O1185      C1192   1.259       .  A
O1186     Al1190   1.786       .  S
O1187      C1188   1.262       .  A
C1188      C1973   1.489       .  S
C1189      C2102   1.489       .  S
C1192      C1925   1.475       .  S
C1193      O1194   1.261       .  A
C1193      C2078   1.473       .  S
O1195      C1210   1.261       .  A
C1196      O1206   1.259       .  A
C1196      O1197   1.256       .  A
C1196      C1910   1.489       .  S
O1198      C1200   1.257       .  A
Al1199     O1207   1.873   1_554  S
Al1199     O1209   1.915   1_554  S
Al1199     O1208   1.791       .  S
C1200      O1213   1.260       .  A
C1200      C1853   1.469       .  S
O1201      C1211   1.263       .  A
O1201     Al1203   1.906       .  S
O1202      C1215   1.256       .  A
O1202     Al1212   1.887   1_556  S
Al1203     O1213   1.913       .  S
O1204      C1211   1.264       .  A
O1205      C1214   1.263       .  A
O1205     Al1212   1.922   1_556  S
O1207      C1214   1.256       .  A
O1208     Al1212   1.795       .  S
O1209      C1210   1.262       .  A
C1210      C1838   1.483       .  S
C1211      C2213   1.486       .  S
C1214      C1886   1.475       .  S
C1215      O1216   1.258       .  A
C1215      C2237   1.471       .  S
O1217      C1232   1.263       .  A
C1218      O1228   1.261       .  A
C1218      O1219   1.262       .  A
C1218      C1814   1.483       .  S
O1220      C1222   1.258       .  A
Al1221     O1229   1.884   1_554  S
Al1221     O1231   1.921   1_554  S
Al1221     O1230   1.777       .  S
C1222      O1235   1.261       .  A
C1222      C2006   1.466       .  S
O1223      C1233   1.262       .  A
O1223     Al1225   1.904       .  S
O1224      C1237   1.261       .  A
O1224     Al1234   1.893   1_556  S
Al1225     O1235   1.910       .  S
O1226      C1233   1.260       .  A
O1227      C1236   1.262       .  A
O1227     Al1234   1.917   1_556  S
O1229      C1236   1.257       .  A
O1230     Al1234   1.783       .  S
O1231      C1232   1.264       .  A
C1232      C1982   1.492       .  S
C1233      C1766   1.481       .  S
C1236      C1781   1.471       .  S
C1237      O1238   1.260       .  A
C1237      C1742   1.470       .  S
O1239      C1254   1.261       .  A
O1239     Al1247   1.906       .  S
C1240      O1250   1.258       .  A
C1240      O1241   1.263       .  A
C1240      C1709   1.475       .  S
O1241     Al1243   1.916       .  S
O1242      C1244   1.257       .  A
O1242     Al1243   1.870       .  S
Al1243     O1251   1.886       .  S
Al1243     O1253   1.915       .  S
Al1243     O1252   1.776       .  S
C1244      O1257   1.266       .  A
C1244      C1862   1.478       .  S
O1245      C1255   1.260       .  A
O1245     Al1247   1.894       .  S
O1246      C1259   1.260       .  A
O1246     Al1256   1.881       .  S
Al1247     O1260   1.920       .  S
Al1247     O1257   1.924       .  S
Al1247     O1252   1.782       .  S
O1248      C1255   1.262       .  A
O1248     Al1256   1.909       .  S
O1249      C1258   1.263       .  A
O1249     Al1256   1.914       .  S
O1250     Al1256   1.895       .  S
O1251      C1258   1.259       .  A
O1252     Al1256   1.779       .  S
O1253      C1254   1.262       .  A
C1254      C1829   1.477       .  S
C1255      C1757   1.478       .  S
C1258      C1694   1.471       .  S
C1259      O1260   1.263       .  A
C1259      C1733   1.487       .  S
O1261      C1276   1.262       .  A
O1261     Al1269   1.913       .  S
C1262      O1272   1.259       .  A
C1262      O1263   1.258       .  A
C1262      C1805   1.476       .  S
O1263     Al1265   1.905       .  S
O1264      C1266   1.261       .  A
O1264     Al1265   1.883       .  S
Al1265     O1273   1.880       .  S
Al1265     O1275   1.900       .  S
Al1265     O1274   1.779       .  S
C1266      O1279   1.267       .  A
C1266      C1622   1.476       .  S
O1267      C1277   1.260       .  A
O1267     Al1269   1.901       .  S
O1268      C1281   1.258       .  A
O1268     Al1278   1.881       .  S
Al1269     O1282   1.929       .  S
Al1269     O1279   1.929       .  S
Al1269     O1274   1.785       .  S
O1270      C1277   1.261       .  A
O1270     Al1278   1.909       .  S
O1271      C1280   1.266       .  A
O1271     Al1278   1.921       .  S
O1272     Al1278   1.908       .  S
O1273      C1280   1.260       .  A
O1274     Al1278   1.782       .  S
O1275      C1276   1.258       .  A
C1276      C1598   1.486       .  S
C1277      C1646   1.471       .  S
C1280      C1790   1.478       .  S
C1281      O1282   1.265       .  A
C1281      C1670   1.479       .  S
O1283      C1298   1.262       .  A
C1284      O1294   1.258       .  A
C1284      O1285   1.257       .  A
C1284      C1718   1.487       .  S
O1286      C1288   1.257       .  A
Al1287     O1295   1.880   1_554  S
Al1287     O1297   1.900   1_554  S
Al1287     O1296   1.784       .  S
C1288      O1301   1.263       .  A
C1288      C1517   1.465       .  S
O1289      C1299   1.264       .  A
O1289     Al1291   1.912       .  S
O1290      C1303   1.259       .  A
O1290     Al1300   1.894   1_556  S
Al1291     O1301   1.928       .  S
O1292      C1299   1.263       .  A
O1293      C1302   1.265       .  A
O1293     Al1300   1.922   1_556  S
O1295      C1302   1.260       .  A
O1296     Al1300   1.790       .  S
O1297      C1298   1.259       .  A
C1298      C1493   1.484       .  S
C1299      C1550   1.495       .  S
C1302      C1685   1.468       .  S
C1303      O1304   1.262       .  A
C1303      C1565   1.481       .  S
O1305      C1320   1.261       .  A
C1306      O1316   1.260       .  A
C1306      O1307   1.263       .  A
C1306      C1469   1.486       .  S
O1308      C1310   1.260       .  A
Al1309     O1317   1.884       .  S
Al1309     O1319   1.912       .  S
Al1309     O1318   1.776       .  S
C1310      O1323   1.266       .  A
C1310      C2141   1.473       .  S
O1311      C1321   1.262       .  A
O1311     Al1313   1.903       .  S
O1312      C1325   1.259       .  A
O1312     Al1322   1.888       .  S
Al1313     O1323   1.922       .  S
O1314      C1321   1.262       .  A
O1315      C1324   1.264       .  A
O1315     Al1322   1.913       .  S
O1317      C1324   1.258       .  A
O1318     Al1322   1.777       .  S
O1319      C1320   1.261       .  A
C1320      C2117   1.470       .  S
C1321      C1637   1.480       .  S
C1324      C1445   1.469       .  S
C1325      O1326   1.263       .  A
C1325      C1661   1.465       .  S
O1327      C1342   1.264       .  A
O1327     Al1335   1.920       .  S
C1328      O1338   1.259       .  A
C1328      O1329   1.258       .  A
C1328      C1478   1.480       .  S
O1329     Al1331   1.904       .  S
O1330      C1332   1.261       .  A
O1330     Al1331   1.892       .  S
Al1331     O1339   1.890       .  S
Al1331     O1341   1.911       .  S
Al1331     O1340   1.781       .  S
C1332      O1345   1.266       .  A
C1332      C2054   1.476       .  S
O1333      C1343   1.263       .  A
O1333     Al1335   1.908       .  S
O1334      C1347   1.259       .  A
O1334     Al1344   1.894       .  S
Al1335     O1348   1.925       .  S
Al1335     O1345   1.932       .  S
Al1335     O1340   1.787       .  S
O1336      C1343   1.262       .  A
O1336     Al1344   1.906       .  S
O1337      C1346   1.263       .  A
O1337     Al1344   1.915       .  S
O1338     Al1344   1.913       .  S
O1339      C1346   1.263       .  A
O1340     Al1344   1.784       .  S
O1341      C1342   1.259       .  A
C1342      C2021   1.497       .  S
C1343      C1541   1.480       .  S
C1346      C1454   1.489       .  S
C1347      O1348   1.263       .  A
C1347      C1574   1.485       .  S
O1349      C1364   1.260       .  A
C1350      O1360   1.259       .  A
C1350      O1351   1.261       .  A
C1350      C1949   1.477       .  S
O1352      C1354   1.262       .  A
Al1353     O1361   1.886       .  S
Al1353     O1363   1.906       .  S
Al1353     O1362   1.780       .  S
C1354      O1367   1.261       .  A
C1354      C1613   1.484       .  S
O1355      C1365   1.262       .  A
O1355     Al1357   1.905       .  S
O1356      C1369   1.260       .  A
O1356     Al1366   1.890       .  S
Al1357     O1367   1.911       .  S
O1358      C1365   1.260       .  A
O1359      C1368   1.261       .  A
O1359     Al1366   1.912       .  S
O1361      C1368   1.261       .  A
O1362     Al1366   1.781       .  S
O1363      C1364   1.261       .  A
C1364      C1589   1.490       .  S
C1365      C1421   1.486       .  S
C1368      C1934   1.485       .  S
C1369      O1370   1.264       .  A
C1369      C1397   1.480       .  S
O1371      C1386   1.262       .  A
O1371     Al1379   1.910       .  S
C1372      O1382   1.260       .  A
C1372      O1373   1.260       .  A
C1372      C1901   1.482       .  S
O1373     Al1375   1.912       .  S
O1374      C1376   1.261       .  A
O1374     Al1375   1.886       .  S
Al1375     O1383   1.888       .  S
Al1375     O1385   1.913       .  S
Al1375     O1384   1.779       .  S
C1376      O1389   1.264       .  A
C1376      C1526   1.490       .  S
O1377      C1387   1.261       .  A
O1377     Al1379   1.896       .  S
O1378      C1391   1.260       .  A
O1378     Al1388   1.891       .  S
Al1379     O1392   1.920       .  S
Al1379     O1389   1.925       .  S
Al1379     O1384   1.788       .  S
O1380      C1387   1.264       .  A
O1380     Al1388   1.911       .  S
O1381      C1390   1.266       .  A
O1381     Al1388   1.928       .  S
O1382     Al1388   1.909       .  S
O1383      C1390   1.261       .  A
O1384     Al1388   1.781       .  S
O1385      C1386   1.262       .  A
C1386      C1502   1.481       .  S
C1387      C1430   1.478       .  S
C1390      C1877   1.482       .  S
C1391      O1392   1.262       .  A
C1391      C1406   1.481       .  S
C1393      C1394   1.401       .  A
C1393      C1398   1.398       .  A
C1393      H1403   1.084       .  S
C1394      C1399   1.475       .  S
C1394      C1395   1.410       .  A
C1395      C1396   1.399       .  A
C1395      S1400   1.804       .  S
C1396      C1397   1.406       .  A
C1396      H1401   1.084       .  S
C1397      C1398   1.416       .  A
C1398      S1402   1.804       .  S
C1399      C1404   1.407       .  A
C1399      C1408   1.400       .  A
S1400      H1416   1.404       .  S
S1402      H1413   1.407       .  S
C1404      C1405   1.399       .  A
C1404      S1409   1.807       .  S
C1405      C1406   1.404       .  A
C1405      H1410   1.079       .  S
C1406      C1407   1.418       .  A
C1407      C1408   1.400       .  A
C1407      S1411   1.802       .  S
C1408      H1412   1.084       .  S
S1409      H1414   1.407       .  S
S1411      H1415   1.403       .  S
C1417      C1418   1.398       .  A
C1417      C1422   1.394       .  A
C1417      H1427   1.085       .  S
C1418      C1423   1.477       .  S
C1418      C1419   1.410       .  A
C1419      C1420   1.402       .  A
C1419      S1424   1.803       .  S
C1420      C1421   1.408       .  A
C1420      H1425   1.084       .  S
C1421      C1422   1.420       .  A
C1422      S1426   1.799       .  S
C1423      C1428   1.407       .  A
C1423      C1432   1.402       .  A
S1424      H1440   1.406       .  S
S1426      H1437   1.402       .  S
C1428      C1429   1.398       .  A
C1428      S1433   1.808       .  S
C1429      C1430   1.405       .  A
C1429      H1434   1.083       .  S
C1430      C1431   1.415       .  A
C1431      C1432   1.401       .  A
C1431      S1435   1.804       .  S
C1432      H1436   1.084       .  S
S1433      H1438   1.407       .  S
S1435      H1439   1.407       .  S
C1441      C1442   1.404       .  A
C1441      C1446   1.399       .  A
C1441      H1451   1.084       .  S
C1442      C1447   1.476       .  S
C1442      C1443   1.412       .  A
C1443      C1444   1.393       .  A
C1443      S1448   1.805       .  S
C1444      C1445   1.402       .  A
C1444      H1449   1.084       .  S
C1445      C1446   1.413       .  A
C1446      S1450   1.805       .  S
C1447      C1452   1.407       .  A
C1447      C1456   1.398       .  A
S1448      H1464   1.406       .  S
S1450      H1461   1.407       .  S
C1452      C1453   1.401       .  A
C1452      S1457   1.808       .  S
C1453      C1454   1.410       .  A
C1453      H1458   1.080       .  S
C1454      C1455   1.422       .  A
C1455      C1456   1.395       .  A
C1455      S1459   1.802       .  S
C1456      H1460   1.084       .  S
S1457      H1462   1.407       .  S
S1459      H1463   1.406       .  S
C1465      C1466   1.403       .  A
C1465      C1470   1.402       .  A
C1465      H1475   1.084       .  S
C1466      C1471   1.485       .  S
C1466      C1467   1.413       .  A
C1467      C1468   1.399       .  A
C1467      S1472   1.805       .  S
C1468      C1469   1.406       .  A
C1468      H1473   1.084       .  S
C1469      C1470   1.417       .  A
C1470      S1474   1.801       .  S
C1471      C1476   1.413       .  A
C1471      C1480   1.400       .  A
S1472      H1488   1.406       .  S
S1474      H1485   1.407       .  S
C1476      C1477   1.409       .  A
C1476      S1481   1.805       .  S
C1477      C1478   1.404       .  A
C1477      H1482   1.083       .  S
C1478      C1479   1.416       .  A
C1479      C1480   1.395       .  A
C1479      S1483   1.803       .  S
C1480      H1484   1.084       .  S
S1481      H1486   1.407       .  S
S1483      H1487   1.402       .  S
C1489      C1490   1.405       .  A
C1489      C1494   1.405       .  A
C1489      H1499   1.084       .  S
C1490      C1495   1.483   1_545  S
C1490      C1491   1.411       .  A
C1491      C1492   1.396       .  A
C1491      S1496   1.806   1_545  S
C1492      C1493   1.406       .  A
C1492      H1497   1.084       .  S
C1493      C1494   1.415       .  A
C1494      S1498   1.801       .  S
C1495      C1500   1.411       .  A
C1495      C1504   1.401       .  A
S1496      H1512   1.405       .  S
S1498      H1509   1.407       .  S
C1500      C1501   1.407       .  A
C1500      S1505   1.805       .  S
C1501      C1502   1.405       .  A
C1501      H1506   1.083       .  S
C1502      C1503   1.415       .  A
C1503      C1504   1.398       .  A
C1503      S1507   1.804       .  S
C1504      H1508   1.084   1_565  S
S1505      H1510   1.407       .  S
S1507      H1511   1.407       .  S
C1513      C1514   1.403       .  A
C1513      C1518   1.396       .  A
C1513      H1523   1.084       .  S
C1514      C1519   1.479   1_545  S
C1514      C1515   1.413   1_545  A
C1515      C1516   1.400   1_565  A
C1515      S1520   1.804       .  S
C1516      C1517   1.402       .  A
C1516      H1521   1.084       .  S
C1517      C1518   1.409       .  A
C1518      S1522   1.805       .  S
C1519      C1524   1.407       .  A
C1519      C1528   1.400       .  A
S1520      H1536   1.405       .  S
S1522      H1533   1.407       .  S
C1524      C1525   1.398       .  A
C1524      S1529   1.809       .  S
C1525      C1526   1.409       .  A
C1525      H1530   1.082       .  S
C1526      C1527   1.421       .  A
C1527      C1528   1.401       .  A
C1527      S1531   1.800       .  S
C1528      H1532   1.084       .  S
S1529      H1534   1.407       .  S
S1531      H1535   1.408       .  S
C1537      C1538   1.406       .  A
C1537      C1542   1.404       .  A
C1537      H1547   1.084       .  S
C1538      C1543   1.491       .  S
C1538      C1539   1.415       .  A
C1539      C1540   1.399       .  A
C1539      S1544   1.805       .  S
C1540      C1541   1.404       .  A
C1540      H1545   1.084       .  S
C1541      C1542   1.414       .  A
C1542      S1546   1.804       .  S
C1543      C1548   1.411       .  A
C1543      C1552   1.401       .  A
S1544      H1560   1.406       .  S
S1546      H1557   1.407       .  S
C1548      C1549   1.409       .  A
C1548      S1553   1.806       .  S
C1549      C1550   1.409       .  A
C1549      H1554   1.082       .  S
C1550      C1551   1.420       .  A
C1551      C1552   1.398       .  A
C1551      S1555   1.800       .  S
C1552      H1556   1.084       .  S
S1553      H1558   1.407       .  S
S1555      H1559   1.406       .  S
C1561      C1562   1.404       .  A
C1561      C1566   1.404       .  A
C1561      H1571   1.084       .  S
C1562      C1567   1.486       .  S
C1562      C1563   1.414       .  A
C1563      C1564   1.400       .  A
C1563      S1568   1.805       .  S
C1564      C1565   1.403       .  A
C1564      H1569   1.084       .  S
C1565      C1566   1.414       .  A
C1566      S1570   1.802       .  S
C1567      C1572   1.410       .  A
C1567      C1576   1.404       .  A
S1568      H1584   1.405       .  S
S1570      H1581   1.407       .  S
C1572      C1573   1.404       .  A
C1572      S1577   1.807       .  S
C1573      C1574   1.406       .  A
C1573      H1578   1.083       .  S
C1574      C1575   1.415       .  A
C1575      C1576   1.405       .  A
C1575      S1579   1.802       .  S
C1576      H1580   1.084       .  S
S1577      H1582   1.406       .  S
S1579      H1583   1.407       .  S
C1585      C1586   1.404   1_455  A
C1585      C1590   1.403       .  A
C1585      H1595   1.084       .  S
C1586      C1591   1.482       .  S
C1586      C1587   1.411       .  A
C1587      C1588   1.397   1_655  A
C1587      S1592   1.806       .  S
C1588      C1589   1.409       .  A
C1588      H1593   1.084       .  S
C1589      C1590   1.418       .  A
C1590      S1594   1.802       .  S
C1591      C1596   1.410       .  A
C1591      C1600   1.398       .  A
S1592      H1608   1.406       .  S
S1594      H1605   1.407       .  S
C1596      C1597   1.407       .  A
C1596      S1601   1.805       .  S
C1597      C1598   1.407       .  A
C1597      H1602   1.083       .  S
C1598      C1599   1.420       .  A
C1599      C1600   1.396       .  A
C1599      S1603   1.805       .  S
C1600      H1604   1.084   1_655  S
S1601      H1606   1.407       .  S
S1603      H1607   1.406       .  S
C1609      C1610   1.399       .  A
C1609      C1614   1.399       .  A
C1609      H1619   1.084   1_455  S
C1610      C1615   1.476   1_455  S
C1610      C1611   1.410       .  A
C1611      C1612   1.397       .  A
C1611      S1616   1.805       .  S
C1612      C1613   1.405       .  A
C1612      H1617   1.084       .  S
C1613      C1614   1.420       .  A
C1614      S1618   1.801       .  S
C1615      C1620   1.407       .  A
C1615      C1624   1.401       .  A
S1616      H1632   1.406       .  S
S1618      H1629   1.408       .  S
C1620      C1621   1.402       .  A
C1620      S1625   1.806   1_655  S
C1621      C1622   1.405       .  A
C1621      H1626   1.082       .  S
C1622      C1623   1.413       .  A
C1623      C1624   1.401       .  A
C1623      S1627   1.809       .  S
C1624      H1628   1.083       .  S
S1625      H1630   1.407   1_455  S
S1627      H1631   1.407       .  S
C1633      C1634   1.402       .  A
C1633      C1638   1.397       .  A
C1633      H1643   1.084       .  S
C1634      C1639   1.484       .  S
C1634      C1635   1.413       .  A
C1635      C1636   1.404       .  A
C1635      S1640   1.803       .  S
C1636      C1637   1.405       .  A
C1636      H1641   1.084       .  S
C1637      C1638   1.413       .  A
C1638      S1642   1.800       .  S
C1639      C1644   1.411       .  A
C1639      C1648   1.405       .  A
S1640      H1656   1.406       .  S
S1642      H1653   1.407       .  S
C1644      C1645   1.401       .  A
C1644      S1649   1.807       .  S
C1645      C1646   1.402       .  A
C1645      H1650   1.083       .  S
C1646      C1647   1.412       .  A
C1647      C1648   1.403       .  A
C1647      S1651   1.804       .  S
C1648      H1652   1.084       .  S
S1649      H1654   1.407       .  S
S1651      H1655   1.407       .  S
C1657      C1658   1.403       .  A
C1657      C1662   1.399       .  A
C1657      H1667   1.084       .  S
C1658      C1663   1.481       .  S
C1658      C1659   1.415       .  A
C1659      C1660   1.399       .  A
C1659      S1664   1.804       .  S
C1660      C1661   1.400       .  A
C1660      H1665   1.084       .  S
C1661      C1662   1.410       .  A
C1662      S1666   1.803       .  S
C1663      C1668   1.411       .  A
C1663      C1672   1.399       .  A
S1664      H1680   1.406       .  S
S1666      H1677   1.404       .  S
C1668      C1669   1.407       .  A
C1668      S1673   1.806       .  S
C1669      C1670   1.406       .  A
C1669      H1674   1.083       .  S
C1670      C1671   1.416       .  A
C1671      C1672   1.394       .  A
C1671      S1675   1.802       .  S
C1672      H1676   1.084       .  S
S1673      H1678   1.407       .  S
S1675      H1679   1.406       .  S
C1681      C1682   1.400       .  A
C1681      C1686   1.393       .  A
C1681      H1691   1.084       .  S
C1682      C1687   1.473       .  S
C1682      C1683   1.414       .  A
C1683      C1684   1.401       .  A
C1683      S1688   1.805       .  S
C1684      C1685   1.402       .  A
C1684      H1689   1.084       .  S
C1685      C1686   1.412       .  A
C1686      S1690   1.802       .  S
C1687      C1692   1.409       .  A
C1687      C1696   1.400       .  A
S1688      H1704   1.405       .  S
S1690      H1701   1.405       .  S
C1692      C1693   1.402       .  A
C1692      S1697   1.806       .  S
C1693      C1694   1.405       .  A
C1693      H1698   1.083       .  S
C1694      C1695   1.413       .  A
C1695      C1696   1.393       .  A
C1695      S1699   1.802       .  S
C1696      H1700   1.084       .  S
S1697      H1702   1.407       .  S
S1699      H1703   1.406       .  S
C1705      C1706   1.404       .  A
C1705      C1710   1.402       .  A
C1705      H1715   1.084       .  S
C1706      C1711   1.477       .  S
C1706      C1707   1.410       .  A
C1707      C1708   1.395       .  A
C1707      S1712   1.805       .  S
C1708      C1709   1.403       .  A
C1708      H1713   1.084       .  S
C1709      C1710   1.413       .  A
C1710      S1714   1.800       .  S
C1711      C1716   1.407       .  A
C1711      C1720   1.398       .  A
S1712      H1728   1.406       .  S
S1714      H1725   1.406       .  S
C1716      C1717   1.404       .  A
C1716      S1721   1.805       .  S
C1717      C1718   1.409       .  A
C1717      H1722   1.082       .  S
C1718      C1719   1.420       .  A
C1719      C1720   1.395       .  A
C1719      S1723   1.802       .  S
C1720      H1724   1.084       .  S
S1721      H1726   1.407       .  S
S1723      H1727   1.405       .  S
C1729      C1730   1.400       .  A
C1729      C1734   1.398       .  A
C1729      H1739   1.084       .  S
C1730      C1735   1.473       .  S
C1730      C1731   1.408       .  A
C1731      C1732   1.394       .  A
C1731      S1736   1.805       .  S
C1732      C1733   1.409       .  A
C1732      H1737   1.084       .  S
C1733      C1734   1.420       .  A
C1734      S1738   1.801       .  S
C1735      C1740   1.407       .  A
C1735      C1744   1.403       .  A
S1736      H1752   1.406       .  S
S1738      H1749   1.408       .  S
C1740      C1741   1.397       .  A
C1740      S1745   1.807       .  S
C1741      C1742   1.406       .  A
C1741      H1746   1.083       .  S
C1742      C1743   1.411       .  A
C1743      C1744   1.397       .  A
C1743      S1747   1.804       .  S
C1744      H1748   1.084       .  S
S1745      H1750   1.407       .  S
S1747      H1751   1.408       .  S
C1753      C1754   1.403       .  A
C1753      C1758   1.400       .  A
C1753      H1763   1.084       .  S
C1754      C1759   1.480       .  S
C1754      C1755   1.412       .  A
C1755      C1756   1.396       .  A
C1755      S1760   1.805       .  S
C1756      C1757   1.405       .  A
C1756      H1761   1.084       .  S
C1757      C1758   1.415       .  A
C1758      S1762   1.804       .  S
C1759      C1764   1.410       .  A
C1759      C1768   1.400       .  A
S1760      H1776   1.406       .  S
S1762      H1773   1.406       .  S
C1764      C1765   1.404       .  A
C1764      S1769   1.807       .  S
C1765      C1766   1.405       .  A
C1765      H1770   1.083       .  S
C1766      C1767   1.417       .  A
C1767      C1768   1.400       .  A
C1767      S1771   1.811       .  S
C1768      H1772   1.083       .  S
S1769      H1774   1.407       .  S
S1771      H1775   1.407       .  S
C1777      C1778   1.400       .  A
C1777      C1782   1.398       .  A
C1777      H1787   1.084       .  S
C1778      C1783   1.471       .  S
C1778      C1779   1.411       .  A
C1779      C1780   1.396       .  A
C1779      S1784   1.806       .  S
C1780      C1781   1.402       .  A
C1780      H1785   1.083       .  S
C1781      C1782   1.414       .  A
C1782      S1786   1.803       .  S
C1783      C1788   1.405       .  A
C1783      C1792   1.400       .  A
S1784      H1800   1.403       .  S
S1786      H1797   1.405   1_556  S
C1788      C1789   1.399       .  A
C1788      S1793   1.806       .  S
C1789      C1790   1.406       .  A
C1789      H1794   1.082       .  S
C1790      C1791   1.417       .  A
C1791      C1792   1.397       .  A
C1791      S1795   1.805       .  S
C1792      H1796   1.084       .  S
S1793      H1798   1.407       .  S
S1795      H1799   1.408       .  S
C1801      C1802   1.401       .  A
C1801      C1806   1.397       .  A
C1801      H1811   1.084       .  S
C1802      C1807   1.482       .  S
C1802      C1803   1.415       .  A
C1803      C1804   1.402       .  A
C1803      S1808   1.803       .  S
C1804      C1805   1.403       .  A
C1804      H1809   1.084       .  S
C1805      C1806   1.415       .  A
C1806      S1810   1.804       .  S
C1807      C1812   1.409       .  A
C1807      C1816   1.402       .  A
S1808      H1824   1.406       .  S
S1810      H1821   1.405       .  S
C1812      C1813   1.400       .  A
C1812      S1817   1.808       .  S
C1813      C1814   1.406       .  A
C1813      H1818   1.083       .  S
C1814      C1815   1.417       .  A
C1815      C1816   1.401       .  A
C1815      S1819   1.801       .  S
C1816      H1820   1.084       .  S
S1817      H1822   1.407       .  S
S1819      H1823   1.406       .  S
C1825      C1826   1.405   1_545  A
C1825      C1830   1.405       .  A
C1825      H1835   1.084       .  S
C1826      C1831   1.486       .  S
C1826      C1827   1.411       .  A
C1827      C1828   1.399   1_565  A
C1827      S1832   1.803       .  S
C1828      C1829   1.404       .  A
C1828      H1833   1.084       .  S
C1829      C1830   1.414       .  A
C1830      S1834   1.804       .  S
C1831      C1836   1.410       .  A
C1831      C1840   1.402       .  A
S1832      H1848   1.406       .  S
S1834      H1845   1.407       .  S
C1836      C1837   1.409       .  A
C1836      S1841   1.804       .  S
C1837      C1838   1.406       .  A
C1837      H1842   1.083       .  S
C1838      C1839   1.414       .  A
C1839      C1840   1.398       .  A
C1839      S1843   1.800       .  S
C1840      H1844   1.084       .  S
S1841      H1846   1.407       .  S
S1843      H1847   1.407       .  S
C1849      C1850   1.400       .  A
C1849      C1854   1.397       .  A
C1849      H1859   1.084       .  S
C1850      C1855   1.470       .  S
C1850      C1851   1.411       .  A
C1851      C1852   1.396       .  A
C1851      S1856   1.805       .  S
C1852      C1853   1.403       .  A
C1852      H1857   1.084       .  S
C1853      C1854   1.412       .  A
C1854      S1858   1.800       .  S
C1855      C1860   1.405   1_565  A
C1855      C1864   1.398   1_565  A
S1856      H1872   1.405       .  S
S1858      H1869   1.406       .  S
C1860      C1861   1.402       .  A
C1860      S1865   1.805   1_545  S
C1861      C1862   1.408       .  A
C1861      H1866   1.082       .  S
C1862      C1863   1.418       .  A
C1863      C1864   1.393       .  A
C1863      S1867   1.806       .  S
C1864      H1868   1.084       .  S
S1865      H1870   1.407   1_565  S
S1867      H1871   1.406       .  S
C1873      C1874   1.402       .  A
C1873      C1878   1.401       .  A
C1873      H1883   1.084       .  S
C1874      C1879   1.480       .  S
C1874      C1875   1.412       .  A
C1875      C1876   1.397       .  A
C1875      S1880   1.805       .  S
C1876      C1877   1.405       .  A
C1876      H1881   1.084       .  S
C1877      C1878   1.416       .  A
C1878      S1882   1.799       .  S
C1879      C1884   1.409       .  A
C1879      C1888   1.403       .  A
S1880      H1896   1.406       .  S
S1882      H1893   1.402       .  S
C1884      C1885   1.401       .  A
C1884      S1889   1.808       .  S
C1885      C1886   1.404       .  A
C1885      H1890   1.083       .  S
C1886      C1887   1.412       .  A
C1887      C1888   1.401       .  A
C1887      S1891   1.801       .  S
C1888      H1892   1.084       .  S
S1889      H1894   1.407       .  S
S1891      H1895   1.407       .  S
C1897      C1898   1.402       .  A
C1897      C1902   1.399       .  A
C1897      H1907   1.084       .  S
C1898      C1903   1.487       .  S
C1898      C1899   1.416       .  A
C1899      C1900   1.404       .  A
C1899      S1904   1.804       .  S
C1900      C1901   1.404       .  A
C1900      H1905   1.084       .  S
C1901      C1902   1.416       .  A
C1902      S1906   1.804       .  S
C1903      C1908   1.409       .  A
C1903      C1912   1.405       .  A
S1904      H1920   1.405       .  S
S1906      H1917   1.407       .  S
C1908      C1909   1.402       .  A
C1908      S1913   1.809       .  S
C1909      C1910   1.408       .  A
C1909      H1914   1.083       .  S
C1910      C1911   1.416       .  A
C1911      C1912   1.405       .  A
C1911      S1915   1.802       .  S
C1912      H1916   1.084       .  S
S1913      H1918   1.407       .  S
S1915      H1919   1.408       .  S
C1921      C1922   1.400       .  A
C1921      C1926   1.393       .  A
C1921      H1931   1.084       .  S
C1922      C1927   1.476       .  S
C1922      C1923   1.412       .  A
C1923      C1924   1.399       .  A
C1923      S1928   1.805       .  S
C1924      C1925   1.405       .  A
C1924      H1929   1.084       .  S
C1925      C1926   1.414       .  A
C1926      S1930   1.803       .  S
C1927      C1932   1.408       .  A
C1927      C1936   1.399       .  A
S1928      H1944   1.406       .  S
S1930      H1941   1.405       .  S
C1932      C1933   1.399       .  A
C1932      S1937   1.808       .  S
C1933      C1934   1.408       .  A
C1933      H1938   1.082       .  S
C1934      C1935   1.421       .  A
C1935      C1936   1.396       .  A
C1935      S1939   1.802       .  S
C1936      H1940   1.084       .  S
S1937      H1942   1.407       .  S
S1939      H1943   1.407       .  S
C1945      C1946   1.402       .  A
C1945      C1950   1.398       .  A
C1945      H1955   1.084       .  S
C1946      C1951   1.482       .  S
C1946      C1947   1.414       .  A
C1947      C1948   1.402       .  A
C1947      S1952   1.804       .  S
C1948      C1949   1.403       .  A
C1948      H1953   1.083       .  S
C1949      C1950   1.414       .  A
C1950      S1954   1.804       .  S
C1951      C1956   1.409       .  A
C1951      C1960   1.402       .  A
S1952      H1968   1.405       .  S
S1954      H1965   1.405       .  S
C1956      C1957   1.401       .  A
C1956      S1961   1.808       .  S
C1957      C1958   1.406       .  A
C1957      H1962   1.083       .  S
C1958      C1959   1.418       .  A
C1959      C1960   1.403       .  A
C1959      S1963   1.801       .  S
C1960      H1964   1.084       .  S
S1961      H1966   1.407       .  S
S1963      H1967   1.408       .  S
C1969      C1970   1.404   1_455  A
C1969      C1974   1.406       .  A
C1969      H1979   1.084       .  S
C1970      C1975   1.488       .  S
C1970      C1971   1.411       .  A
C1971      C1972   1.399   1_655  A
C1971      S1976   1.804       .  S
C1972      C1973   1.407       .  A
C1972      H1977   1.084       .  S
C1973      C1974   1.418       .  A
C1974      S1978   1.801       .  S
C1975      C1980   1.409       .  A
C1975      C1984   1.400       .  A
S1976      H1992   1.406       .  S
S1978      H1989   1.403       .  S
C1980      C1981   1.410       .  A
C1980      S1985   1.804       .  S
C1981      C1982   1.409       .  A
C1981      H1986   1.083       .  S
C1982      C1983   1.418       .  A
C1983      C1984   1.402       .  A
C1983      S1987   1.808       .  S
C1984      H1988   1.083       .  S
S1985      H1990   1.407       .  S
S1987      H1991   1.407       .  S
C1993      C1994   1.400       .  A
C1993      C1998   1.394       .  A
C1993      H2003   1.084       .  S
C1994      C1999   1.467   1_455  S
C1994      C1995   1.409       .  A
C1995      C1996   1.396       .  A
C1995      S2000   1.804   1_455  S
C1996      C1997   1.404       .  A
C1996      H2001   1.084       .  S
C1997      C1998   1.415       .  A
C1998      S2002   1.807       .  S
C1999      C2004   1.408       .  A
C1999      C2008   1.399       .  A
S2000      H2016   1.405       .  S
S2002      H2013   1.405       .  S
C2004      C2005   1.398       .  A
C2004      S2009   1.808       .  S
C2005      C2006   1.402       .  A
C2005      H2010   1.083       .  S
C2006      C2007   1.413       .  A
C2007      C2008   1.395       .  A
C2007      S2011   1.801       .  S
C2008      H2012   1.084   1_655  S
S2009      H2014   1.407       .  S
S2011      H2015   1.407       .  S
C2017      C2018   1.397       .  A
C2017      C2022   1.396       .  A
C2017      H2027   1.084       .  S
C2018      C2023   1.487       .  S
C2018      C2019   1.414       .  A
C2019      C2020   1.407       .  A
C2019      S2024   1.803       .  S
C2020      C2021   1.410       .  A
C2020      H2025   1.083       .  S
C2021      C2022   1.424       .  A
C2022      S2026   1.801       .  S
C2023      C2028   1.410       .  A
C2023      C2032   1.405       .  A
S2024      H2040   1.405       .  S
S2026      H2037   1.404       .  S
C2028      C2029   1.403       .  A
C2028      S2033   1.808       .  S
C2029      C2030   1.406       .  A
C2029      H2034   1.083       .  S
C2030      C2031   1.415       .  A
C2031      C2032   1.404       .  A
C2031      S2035   1.803       .  S
C2032      H2036   1.084       .  S
S2033      H2038   1.407       .  S
S2035      H2039   1.408       .  S
C2041      C2042   1.401       .  A
C2041      C2046   1.397       .  A
C2041      H2051   1.084       .  S
C2042      C2047   1.481       .  S
C2042      C2043   1.412       .  A
C2043      C2044   1.403       .  A
C2043      S2048   1.804       .  S
C2044      C2045   1.407       .  A
C2044      H2049   1.084       .  S
C2045      C2046   1.417       .  A
C2046      S2050   1.806       .  S
C2047      C2052   1.410       .  A
C2047      C2056   1.402       .  A
S2048      H2064   1.405       .  S
S2050      H2061   1.408       .  S
C2052      C2053   1.403       .  A
C2052      S2057   1.806       .  S
C2053      C2054   1.403       .  A
C2053      H2058   1.083       .  S
C2054      C2055   1.414       .  A
C2055      C2056   1.400       .  A
C2055      S2059   1.801       .  S
C2056      H2060   1.084       .  S
S2057      H2062   1.407       .  S
S2059      H2063   1.406       .  S
C2065      C2066   1.398       .  A
C2065      C2070   1.393       .  A
C2065      H2075   1.084       .  S
C2066      C2071   1.483       .  S
C2066      C2067   1.415       .  A
C2067      C2068   1.404       .  A
C2067      S2072   1.804       .  S
C2068      C2069   1.405       .  A
C2068      H2073   1.084       .  S
C2069      C2070   1.420       .  A
C2070      S2074   1.804       .  S
C2071      C2076   1.412       .  A
C2071      C2080   1.403       .  A
S2072      H2088   1.405       .  S
S2074      H2085   1.403       .  S
C2076      C2077   1.405       .  A
C2076      S2081   1.806       .  S
C2077      C2078   1.404       .  A
C2077      H2082   1.081       .  S
C2078      C2079   1.411       .  A
C2079      C2080   1.395       .  A
C2079      S2083   1.802       .  S
C2080      H2084   1.084       .  S
S2081      H2086   1.407       .  S
S2083      H2087   1.404       .  S
C2089      C2090   1.402       .  A
C2089      C2094   1.399       .  A
C2089      H2099   1.084       .  S
C2090      C2095   1.483       .  S
C2090      C2091   1.414       .  A
C2091      C2092   1.401       .  A
C2091      S2096   1.804       .  S
C2092      C2093   1.403       .  A
C2092      H2097   1.084       .  S
C2093      C2094   1.414       .  A
C2094      S2098   1.802       .  S
C2095      C2100   1.408       .  A
C2095      C2104   1.402       .  A
S2096      H2112   1.406       .  S
S2098      H2109   1.406       .  S
C2100      C2101   1.402       .  A
C2100      S2105   1.808       .  S
C2101      C2102   1.408       .  A
C2101      H2106   1.082       .  S
C2102      C2103   1.419       .  A
C2103      C2104   1.402       .  A
C2103      S2107   1.802       .  S
C2104      H2108   1.084       .  S
S2105      H2110   1.407       .  S
S2107      H2111   1.405       .  S
C2113      C2114   1.400       .  A
C2113      C2118   1.397       .  A
C2113      H2123   1.084       .  S
C2114      C2119   1.478       .  S
C2114      C2115   1.415       .  A
C2115      C2116   1.401       .  A
C2115      S2120   1.804       .  S
C2116      C2117   1.401       .  A
C2116      H2121   1.084       .  S
C2117      C2118   1.413       .  A
C2118      S2122   1.804       .  S
C2119      C2124   1.405       .  A
C2119      C2128   1.403       .  A
S2120      H2136   1.405       .  S
S2122      H2133   1.406   1_556  S
C2124      C2125   1.395       .  A
C2124      S2129   1.810       .  S
C2125      C2126   1.410       .  A
C2125      H2130   1.082       .  S
C2126      C2127   1.418       .  A
C2127      C2128   1.405       .  A
C2127      S2131   1.800       .  S
C2128      H2132   1.084       .  S
S2129      H2134   1.406       .  S
S2131      H2135   1.408       .  S
C2137      C2138   1.398       .  A
C2137      C2142   1.393       .  A
C2137      H2147   1.084       .  S
C2138      C2143   1.469       .  S
C2138      C2139   1.409       .  A
C2139      C2140   1.398       .  A
C2139      S2144   1.803       .  S
C2140      C2141   1.405       .  A
C2140      H2145   1.084       .  S
C2141      C2142   1.417       .  A
C2142      S2146   1.804       .  S
C2143      C2148   1.409       .  A
C2143      C2152   1.399       .  A
S2144      H2160   1.405       .  S
S2146      H2157   1.402       .  S
C2148      C2149   1.402       .  A
C2148      S2153   1.805       .  S
C2149      C2150   1.401       .  A
C2149      H2154   1.083       .  S
C2150      C2151   1.410       .  A
C2151      C2152   1.393       .  A
C2151      S2155   1.802       .  S
C2152      H2156   1.084       .  S
S2153      H2158   1.407       .  S
S2155      H2159   1.406       .  S
C2161      C2162   1.402       .  A
C2161      C2166   1.405       .  A
C2161      H2171   1.083       .  S
C2162      C2167   1.478       .  S
C2162      C2163   1.410       .  A
C2163      C2164   1.395       .  A
C2163      S2168   1.805       .  S
C2164      C2165   1.406       .  A
C2164      H2169   1.084       .  S
C2165      C2166   1.416       .  A
C2166      S2170   1.807       .  S
C2167      C2172   1.411       .  A
C2167      C2176   1.400       .  A
S2168      H2184   1.406       .  S
S2170      H2181   1.407       .  S
C2172      C2173   1.404       .  A
C2172      S2177   1.806       .  S
C2173      C2174   1.403       .  A
C2173      H2178   1.083       .  S
C2174      C2175   1.412       .  A
C2175      C2176   1.395       .  A
C2175      S2179   1.803       .  S
C2176      H2180   1.084       .  S
S2177      H2182   1.407       .  S
S2179      H2183   1.406       .  S
C2185      C2186   1.402       .  A
C2185      C2190   1.400       .  A
C2185      H2195   1.084       .  S
C2186      C2191   1.477       .  S
C2186      C2187   1.412       .  A
C2187      C2188   1.395       .  A
C2187      S2192   1.805       .  S
C2188      C2189   1.401       .  A
C2188      H2193   1.084       .  S
C2189      C2190   1.413       .  A
C2190      S2194   1.800       .  S
C2191      C2196   1.409       .  A
C2191      C2200   1.403       .  A
S2192      H2208   1.406       .  S
S2194      H2205   1.406       .  S
C2196      C2197   1.398       .  A
C2196      S2201   1.808       .  S
C2197      C2198   1.403       .  A
C2197      H2202   1.083       .  S
C2198      C2199   1.412       .  A
C2199      C2200   1.401       .  A
C2199      S2203   1.802       .  S
C2200      H2204   1.084       .  S
S2201      H2206   1.407       .  S
S2203      H2207   1.406       .  S
C2209      C2210   1.405       .  A
C2209      C2214   1.406       .  A
C2209      H2219   1.084       .  S
C2210      C2215   1.487       .  S
C2210      C2211   1.412       .  A
C2211      C2212   1.398       .  A
C2211      S2216   1.805       .  S
C2212      C2213   1.406       .  A
C2212      H2217   1.083       .  S
C2213      C2214   1.417       .  A
C2214      S2218   1.803       .  S
C2215      C2220   1.410       .  A
C2215      C2224   1.398       .  A
S2216      H2232   1.406       .  S
S2218      H2229   1.407       .  S
C2220      C2221   1.409       .  A
C2220      S2225   1.805       .  S
C2221      C2222   1.411       .  A
C2221      H2226   1.082       .  S
C2222      C2223   1.422       .  A
C2223      C2224   1.395       .  A
C2223      S2227   1.802       .  S
C2224      H2228   1.084       .  S
S2225      H2230   1.407       .  S
S2227      H2231   1.407       .  S
C2233      C2234   1.401       .  A
C2233      C2238   1.394       .  A
C2233      H2243   1.084       .  S
C2234      C2239   1.478       .  S
C2234      C2235   1.414       .  A
C2235      C2236   1.402       .  A
C2235      S2240   1.804       .  S
C2236      C2237   1.404       .  A
C2236      H2241   1.084       .  S
C2237      C2238   1.410       .  A
C2238      S2242   1.799       .  S
C2239      C2244   1.410       .  A
C2239      C2248   1.399       .  A
S2240      H2256   1.405       .  S
S2242      H2253   1.406       .  S
C2244      C2245   1.406       .  A
C2244      S2249   1.806       .  S
C2245      C2246   1.406       .  A
C2245      H2250   1.083       .  S
C2246      C2247   1.415       .  A
C2247      C2248   1.393       .  A
C2247      S2251   1.802       .  S
C2248      H2252   1.084       .  S
S2249      H2254   1.407       .  S
S2251      H2255   1.406       .  S
