geometry optimzed in LAMMPS
_audit_creation_date              2020-12-01 
_audit_creation_method            'lammps2cif' 
_symmetry_space_group_name_H-M    'P1' 
_symmetry_Int_Tables_number       1 
_symmetry_cell_setting            triclinic 
loop_ 
_symmetry_equiv_pos_as_xyz 
  x,y,z 
_cell_length_a                    59.97908704 
_cell_length_b                    59.81826862412481 
_cell_length_c                    45.671369771255314 
_cell_angle_alpha                 90.06130174727217 
_cell_angle_beta                  90.00699170707544 
_cell_angle_gamma                 120.41037172819024 
loop_ 
_atom_site_label 
_atom_site_type_symbol 
_atom_site_fract_x 
_atom_site_fract_y 
_atom_site_fract_z 
_atom_site_charge 
O1          O  0.51366832  0.61935686  0.21193601    -0.83900
O2          O  0.56359077  0.63352813  0.22627796    -0.80900
C3          C  0.57687561  0.65173388  0.20864601     0.99600
O4          O  0.57854652  0.67348179  0.21150055    -0.80900
O5          O  0.56396329  0.70904457  0.22604632    -0.83600
C6          C  0.54482658  0.70402186  0.20991296     1.04100
O7          O  0.52324763  0.68383225  0.21357089    -0.76400
O8          O  0.48831974  0.63347774  0.22737704    -0.76500
C9          C  0.49341413  0.62056035  0.20941606     1.04100
O10         O  0.49945237  0.61153140  0.27277238    -0.83900
O11         O  0.55058921  0.63119222  0.28691456    -0.80900
C12         C  0.57432433  0.64734319  0.28969794     0.99600
O13         O  0.58576260  0.66661574  0.27270822    -0.81000
O14         O  0.56737134  0.69904617  0.28711591    -0.83600
C15         C  0.55095845  0.70599547  0.29095026     1.04100
O16         O  0.53143316  0.69779691  0.27444223    -0.76400
O17         O  0.49995502  0.64638320  0.28862485    -0.76500
C18         C  0.49217751  0.62258064  0.29079711     1.04000
Cr19       Cr  0.53233134  0.62646450  0.24951665     1.93700
Cr20       Cr  0.57137852  0.68501599  0.24937106     1.93200
Cr21       Cr  0.51281633  0.66491205  0.25097354     1.39100
O22         O  0.53889827  0.65888415  0.24999598    -1.21600
O23         O  0.36453627  0.46922308  0.03728381    -0.83900
O24         O  0.34815263  0.41852581  0.02341907    -0.80900
C25         C  0.32987777  0.40578088  0.04117955     0.99600
O26         O  0.30856607  0.40491621  0.03836713    -0.80900
O27         O  0.27449011  0.42127194  0.02400744    -0.83600
C28         C  0.28029504  0.44053431  0.04036866     1.04100
O29         O  0.30095783  0.46175761  0.03680967    -0.76400
O30         O  0.35146498  0.49552181  0.02211178    -0.76500
C31         C  0.36418432  0.48998685  0.03980083     1.04100
O32         O  0.37177168  0.48258986  0.47582870    -0.83900
O33         O  0.35022734  0.43108483  0.46232982    -0.80900
C34         C  0.33336708  0.40752070  0.45967748     0.99600
O35         O  0.31442795  0.39667076  0.47711157    -0.81000
O36         O  0.28366908  0.41697949  0.46299534    -0.83600
C37         C  0.27728375  0.43388290  0.45956633     1.04100
O38         O  0.28624683  0.45355842  0.47604261    -0.76400
O39         O  0.33747550  0.48344292  0.46084295    -0.76500
C40         C  0.36093625  0.49025745  0.45800531     1.04000
Cr41       Cr  0.35617552  0.44983432  0.49960130     1.93700
Cr42       Cr  0.29741011  0.41239940  0.50057022     1.93200
Cr43       Cr  0.31945990  0.47140776  0.49885352     1.39100
O44         O  0.32428566  0.44450619  0.49968449    -1.21600
O45         O  0.09566666  0.46856111  0.21297027    -0.83900
O46         O  0.06073106  0.41788444  0.22655065    -0.80900
C47         C  0.06607146  0.40522273  0.20857315     0.99600
O48         O  0.08651378  0.40432695  0.21123379    -0.80900
O49         O  0.13709491  0.42047561  0.22565326    -0.83600
C50         C  0.15073042  0.43980897  0.20943735     1.04100
O51         O  0.15175645  0.46110676  0.21345537    -0.76400
O52         O  0.13532789  0.49481813  0.22819159    -0.76500
C53         C  0.11695769  0.48936027  0.21059666     1.04100
O54         O  0.10204994  0.48211751  0.27400644    -0.83900
O55         O  0.07141469  0.43051441  0.28744246    -0.80900
C56         C  0.06430913  0.40688160  0.28986381     0.99600
O57         O  0.07237767  0.39608556  0.27241758    -0.81000
O58         O  0.12359518  0.41621679  0.28674359    -0.83600
C59         C  0.14697431  0.43319537  0.29058654     1.04100
O60         O  0.15804802  0.45288882  0.27419742    -0.76400
O61         O  0.13719115  0.48302052  0.28913811    -0.76500
C62         C  0.12065169  0.48990881  0.29181526     1.04000
Cr63       Cr  0.08455856  0.44934294  0.25024273     1.93700
Cr64       Cr  0.10535123  0.41179260  0.24908112     1.93200
Cr65       Cr  0.14306555  0.47082742  0.25119331     1.39100
O66         O  0.11102737  0.44395471  0.25018797    -1.21600
O67         O  0.51104471  0.88595450  0.03623334    -0.83900
O68         O  0.56116942  0.92116907  0.02159366    -0.80900
C69         C  0.57378106  0.91622892  0.04000559     0.99600
O70         O  0.57508509  0.89594333  0.03787347    -0.80900
O71         O  0.56001049  0.84535477  0.02480588    -0.83600
C72         C  0.54096058  0.83180083  0.04137707     1.04100
O73         O  0.51952047  0.83032909  0.03738220    -0.76400
O74         O  0.48518400  0.84572049  0.02222869    -0.76500
C75         C  0.49058882  0.86446431  0.03934550     1.04100
O76         O  0.49697571  0.87813555  0.47550294    -0.83900
O77         O  0.54811785  0.90916971  0.46103755    -0.80900
C78         C  0.57178692  0.91677848  0.45850578     0.99600
O79         O  0.58302939  0.90942804  0.47621705    -0.81000
O80         O  0.56382615  0.85790869  0.46324429    -0.83600
C81         C  0.54726374  0.83424871  0.46013485     1.04100
O82         O  0.52766395  0.82323719  0.47663986    -0.76400
O83         O  0.49667176  0.84297914  0.46121109    -0.76500
C84         C  0.48939255  0.85920951  0.45813376     1.04000
Cr85       Cr  0.52989282  0.89666174  0.49863238     1.93700
Cr86       Cr  0.56812071  0.87682167  0.50037548     1.93200
Cr87       Cr  0.50944382  0.83818985  0.49928881     1.39100
O88         O  0.53584285  0.87050652  0.49937454    -1.21600
O89         O  0.88561230  0.36468749  0.03548025    -0.83900
O90         O  0.92115492  0.35006753  0.02232281    -0.80900
C91         C  0.91613520  0.33201420  0.04020767     0.99600
O92         O  0.89586033  0.31022579  0.03758720    -0.80900
O93         O  0.84543632  0.27432268  0.02321987    -0.83600
C94         C  0.83142835  0.27946298  0.03929084     1.04100
O95         O  0.83016938  0.29959474  0.03529348    -0.76400
O96         O  0.84579409  0.34978622  0.02027033    -0.76500
C97         C  0.86408116  0.36338705  0.03779689     1.04100
O98         O  0.87883051  0.37102116  0.47430472    -0.83900
O99         O  0.91020981  0.35122879  0.46121647    -0.80900
C100        C  0.91762893  0.33503851  0.45892700     0.99600
O101        O  0.90982514  0.31620720  0.47651088    -0.81000
O102        O  0.85872751  0.28360159  0.46219352    -0.83600
C103        C  0.83523435  0.27640145  0.45840493     1.04100
O104        O  0.82393352  0.28468972  0.47469867    -0.76400
O105        O  0.84390010  0.33582442  0.45951672    -0.76500
C106        C  0.86005446  0.35960185  0.45675316     1.04000
Cr107      Cr  0.89678185  0.35663994  0.49832464     1.93700
Cr108      Cr  0.87687003  0.29811660  0.49983470     1.93200
Cr109      Cr  0.83840245  0.31790705  0.49753517     1.39100
O110        O  0.87065678  0.32416678  0.49855661    -1.21600
O111        O  0.61438613  0.09577930  0.21306593    -0.83900
O112        O  0.62937421  0.06069732  0.22730983    -0.80900
C113        C  0.64713938  0.06564223  0.20913352     0.99600
O114        O  0.66884558  0.08605297  0.21125241    -0.80900
O115        O  0.70467115  0.13677559  0.22470413    -0.83600
C116        C  0.69938934  0.15045512  0.20822079     1.04100
O117        O  0.67927444  0.15169502  0.21206814    -0.76400
O118        O  0.62921144  0.13596363  0.22737879    -0.76500
C119        C  0.61546391  0.11723634  0.21036257     1.04100
O120        O  0.60840859  0.10343790  0.27385972    -0.83900
O121        O  0.62848252  0.07260722  0.28797294    -0.80900
C122        C  0.64457184  0.06511836  0.29036317     0.99600
O123        O  0.66320637  0.07263271  0.27260353    -0.81000
O124        O  0.69552461  0.12403447  0.28599810    -0.83600
C125        C  0.70269749  0.14762336  0.28935607     1.04100
O126        O  0.69442916  0.15874788  0.27273236    -0.76400
O127        O  0.64350334  0.13868298  0.28819327    -0.76500
C128        C  0.61990198  0.12224464  0.29136453     1.04000
Cr129      Cr  0.62272000  0.08519684  0.25048643     1.93700
Cr130      Cr  0.68105016  0.10535955  0.24869009     1.93200
Cr131      Cr  0.66113779  0.14376173  0.25006976     1.39100
O132        O  0.65502528  0.11148071  0.24971507    -1.21600
O133        O  0.88143101  0.50960587  0.21170419    -0.83900
O134        O  0.91785228  0.55936262  0.22676488    -0.80900
C135        C  0.91362468  0.57317490  0.20928152     0.99600
O136        O  0.89392748  0.57537429  0.21212283    -0.80900
O137        O  0.84389362  0.56158092  0.22613300    -0.83600
C138        C  0.82993940  0.54317641  0.20890801     1.04100
O139        O  0.82785538  0.52126958  0.21159999    -0.76400
O140        O  0.84108711  0.48477155  0.22547434    -0.76500
C141        C  0.85964219  0.48955620  0.20846970     1.04100
O142        O  0.87322230  0.49480324  0.27237331    -0.83900
O143        O  0.90577597  0.54555312  0.28741450    -0.80900
C144        C  0.91405988  0.56936307  0.29061100     0.99600
O145        O  0.90732342  0.58141367  0.27338663    -0.81000
O146        O  0.85631005  0.56317685  0.28716760    -0.83600
C147        C  0.83252573  0.54715287  0.29001306     1.04100
O148        O  0.82088037  0.52830814  0.27249751    -0.76400
O149        O  0.83868100  0.49550103  0.28673385    -0.76500
C150        C  0.85444110  0.48765182  0.28977783     1.04000
Cr151      Cr  0.89259701  0.52790437  0.24955238     1.93700
Cr152      Cr  0.87478645  0.56784409  0.24966479     1.93200
Cr153      Cr  0.83466871  0.50945366  0.24908400     1.39100
O154        O  0.86733100  0.53508219  0.24940752    -1.21600
O155        O  0.48252541  0.10473545  0.02394216    -0.83900
O156        O  0.43165798  0.07316900  0.03882953    -0.80900
C157        C  0.40796318  0.06528983  0.04171056     0.99600
O158        O  0.39646237  0.07263293  0.02433861    -0.80900
O159        O  0.41575526  0.12417628  0.03708098    -0.83600
C160        C  0.43214573  0.14790496  0.03976602     1.04100
O161        O  0.45119126  0.15903695  0.02254034    -0.76400
O162        O  0.48254041  0.13982888  0.03794483    -0.76500
C163        C  0.48979395  0.12360783  0.04133531     1.04100
O164        O  0.46799552  0.09640632  0.46322467    -0.83900
O165        O  0.41804401  0.06101762  0.47833248    -0.80900
C166        C  0.40475548  0.06563916  0.46055641     0.99600
O167        O  0.40332459  0.08583730  0.46283094    -0.81000
O168        O  0.41846449  0.13650121  0.47573871    -0.83600
C169        C  0.43719217  0.15010488  0.45871758     1.04100
O170        O  0.45871563  0.15155479  0.46206812    -0.76400
O171        O  0.49370233  0.13669527  0.47708128    -0.76500
C172        C  0.48840899  0.11791892  0.46009794     1.04000
Cr173      Cr  0.44961187  0.08587771  0.50100482     1.93700
Cr174      Cr  0.41106530  0.10535217  0.50005931     1.93200
Cr175      Cr  0.46960328  0.14428779  0.49999172     1.39100
O176        O  0.44339758  0.11185832  0.50033172    -1.21600
O177        O  0.61693985  0.51298030  0.03712042    -0.83900
O178        O  0.63196219  0.56293694  0.02187302    -0.80900
C179        C  0.65007184  0.57624203  0.03964396     0.99600
O180        O  0.67169879  0.57775141  0.03708038    -0.80900
O181        O  0.70673280  0.56246924  0.02373841    -0.83600
C182        C  0.70130057  0.54384735  0.04091833     1.04100
O183        O  0.68103579  0.52220936  0.03771608    -0.76400
O184        O  0.63085547  0.48702919  0.02320300    -0.76500
C185        C  0.61768714  0.49249723  0.04026120     1.04100
O186        O  0.60988006  0.49744660  0.47649011    -0.83900
O187        O  0.62983895  0.54848742  0.46137216    -0.80900
C188        C  0.64604887  0.57221575  0.45841880     0.99600
O189        O  0.66492656  0.58383083  0.47584392    -0.81000
O190        O  0.69694095  0.56461780  0.46276291    -0.83600
C191        C  0.70407162  0.54819324  0.46012940     1.04100
O192        O  0.69581201  0.52905390  0.47730511    -0.76400
O193        O  0.64470377  0.49712761  0.46243179    -0.76500
C194        C  0.62105331  0.48951500  0.45950948     1.04000
Cr195      Cr  0.62452318  0.53070211  0.49921025     1.93700
Cr196      Cr  0.68290186  0.56950931  0.49995519     1.93200
Cr197      Cr  0.66268979  0.51082888  0.50020674     1.39100
O198        O  0.65675017  0.53702692  0.49970976    -1.21600
O199        O  0.46666320  0.36551484  0.21344326    -0.83900
O200        O  0.41651144  0.34935476  0.22831575    -0.80900
C201        C  0.40344308  0.33136370  0.21025528     0.99600
O202        O  0.40233459  0.30981583  0.21224401    -0.80900
O203        O  0.41808484  0.27485190  0.22493587    -0.83600
C204        C  0.43682686  0.28057796  0.20787582     1.04100
O205        O  0.45822338  0.30111672  0.21127947    -0.76400
O206        O  0.49266049  0.35153123  0.22676754    -0.76500
C207        C  0.48714305  0.36490190  0.21008201     1.04100
O208        O  0.48116453  0.37166994  0.27423651    -0.83900
O209        O  0.43008524  0.35055853  0.28880693    -0.80900
C210        C  0.40645074  0.33409727  0.29133200     0.99600
O211        O  0.39527813  0.31525360  0.27372423    -0.81000
O212        O  0.41535570  0.28389193  0.28641280    -0.83600
C213        C  0.43214646  0.27729204  0.28908206     1.04100
O214        O  0.45117039  0.28581486  0.27178807    -0.76400
O215        O  0.48190482  0.33682203  0.28750509    -0.76500
C216        C  0.48891191  0.36031758  0.29119262     1.04000
Cr217      Cr  0.44816320  0.35674966  0.25111123     1.93700
Cr218      Cr  0.41025221  0.29800179  0.24936587     1.93200
Cr219      Cr  0.46892629  0.31925282  0.24936690     1.39100
O220        O  0.44242852  0.32462742  0.24992385    -1.21600
O221        O  0.09400165  0.61687018  0.03891836    -0.83900
O222        O  0.05832382  0.63073442  0.02374645    -0.80900
C223        C  0.06316139  0.64927251  0.04081671     0.99600
O224        O  0.08335122  0.67106405  0.03772830    -0.80900
O225        O  0.13390975  0.70655851  0.02336040    -0.83600
C226        C  0.14790946  0.70193025  0.04009608     1.04100
O227        O  0.14927133  0.68173922  0.03711158    -0.76400
O228        O  0.13373572  0.63113042  0.02392263    -0.76500
C229        C  0.11548472  0.61815126  0.04168360     1.04100
O230        O  0.10047695  0.60860412  0.47821177    -0.83900
O231        O  0.06906276  0.62775827  0.46326057    -0.80900
C232        C  0.06162572  0.64382688  0.45985018     0.99600
O233        O  0.06951663  0.66334996  0.47644459    -0.81000
O234        O  0.12070332  0.69551123  0.46211169    -0.83600
C235        C  0.14422605  0.70262279  0.45881798     1.04100
O236        O  0.15542979  0.69490875  0.47602024    -0.76400
O237        O  0.13522561  0.64342400  0.46247387    -0.76500
C238        C  0.11892096  0.61963112  0.46022278     1.04000
Cr239      Cr  0.08248040  0.62363898  0.50097301     1.93700
Cr240      Cr  0.10235867  0.68217612  0.49989181     1.93200
Cr241      Cr  0.14079422  0.66232682  0.49987224     1.39100
O242        O  0.10855753  0.65611449  0.50026327    -1.21600
O243        O  0.36354983  0.88642293  0.21337061    -0.83900
O244        O  0.34882730  0.92135786  0.22904215    -0.80900
C245        C  0.33078148  0.91659072  0.21131723     0.99600
O246        O  0.30897886  0.89633315  0.21376642    -0.80900
O247        O  0.27330343  0.84546550  0.22671276    -0.83600
C248        C  0.27838737  0.83213956  0.20937092     1.04100
O249        O  0.29858281  0.83088804  0.21235156    -0.76400
O250        O  0.34879692  0.84605222  0.22662378    -0.76500
C251        C  0.36239657  0.86500197  0.20987475     1.04100
O252        O  0.37016509  0.87804005  0.27389347    -0.83900
O253        O  0.35060337  0.90904192  0.28940561    -0.80900
C254        C  0.33455863  0.91650690  0.29258693     0.99600
O255        O  0.31559276  0.90906094  0.27531727    -0.81000
O256        O  0.28345309  0.85739065  0.28815175    -0.83600
C257        C  0.27626803  0.83371857  0.29070307     1.04100
O258        O  0.28416225  0.82286074  0.27315254    -0.76400
O259        O  0.33515411  0.84251993  0.28776337    -0.76500
C260        C  0.35876181  0.85892463  0.29098857     1.04000
Cr261      Cr  0.35572204  0.89664232  0.25138274     1.93700
Cr262      Cr  0.29734794  0.87658368  0.25096847     1.93200
Cr263      Cr  0.31715845  0.83810802  0.25002680     1.39100
O264        O  0.32336868  0.87042413  0.25078132    -1.21600
C265        C  0.22507350  0.78744218  0.35350496     0.18500
C266        C  0.23201261  0.79048516  0.38317378    -0.10600
C267        C  0.21468176  0.77341836  0.40407304    -0.11500
C268        C  0.19028418  0.75317815  0.39547276     0.20100
C269        C  0.18332335  0.75015308  0.36580794    -0.13500
C270        C  0.20065953  0.76722736  0.34490154    -0.11800
C271        C  0.17271593  0.73528740  0.41704415     0.01000
C272        C  0.15897224  0.72034032  0.43570932    -0.31800
C273        C  0.24313415  0.80469213  0.33185150     0.02400
C274        C  0.25827083  0.81847174  0.31335650    -0.33500
H275        H  0.25084281  0.80594676  0.39012262     0.13500
H276        H  0.22035663  0.77592038  0.42690976     0.13300
H277        H  0.16458390  0.73454378  0.35883388     0.13100
H278        H  0.19508269  0.76458679  0.32203039     0.12200
C279        C  0.22791548  0.78758165  0.14523818     0.18500
C280        C  0.23743855  0.78635345  0.11763235    -0.10600
C281        C  0.22062883  0.76954341  0.09619213    -0.11500
C282        C  0.19419887  0.75385548  0.10223664     0.20100
C283        C  0.18462623  0.75525518  0.12974952    -0.13500
C284        C  0.20144457  0.77207386  0.15120047    -0.11800
C285        C  0.17710053  0.73586333  0.08048526     0.01000
C286        C  0.16335344  0.72046910  0.06218151    -0.31800
C287        C  0.24542622  0.80413301  0.16766393     0.02400
C288        C  0.26038068  0.81734018  0.18658383    -0.33500
H289        H  0.25787025  0.79818047  0.11279467     0.13500
H290        H  0.22826964  0.76858816  0.07502841     0.13300
H291        H  0.16424666  0.74317991  0.13470222     0.13100
H292        H  0.19386587  0.77279144  0.17249308     0.12200
C293        C  0.53908774  0.40371769  0.35609498     0.18500
C294        C  0.56468217  0.40899392  0.35625093    -0.10600
C295        C  0.58214516  0.42572530  0.37731415    -0.11500
C296        C  0.57407263  0.43725147  0.39828660     0.20100
C297        C  0.54838866  0.43166638  0.39837212    -0.13500
C298        C  0.53095049  0.41496025  0.37733567    -0.11800
C299        C  0.59212177  0.45531029  0.41930817     0.01000
C300        C  0.60613834  0.47089685  0.43728405    -0.31800
C301        C  0.52138917  0.38750748  0.33362691     0.02400
C302        C  0.50654174  0.37470909  0.31443414    -0.33500
H303        H  0.57120009  0.40043952  0.33990385     0.13500
H304        H  0.60195156  0.42989889  0.37703712     0.13300
H305        H  0.54193079  0.44046693  0.41448255     0.13100
H306        H  0.51123366  0.41106431  0.37741152     0.12200
C307        C  0.53751702  0.41036683  0.14683316     0.18500
C308        C  0.53288592  0.40295307  0.11734263    -0.10600
C309        C  0.54991900  0.41918276  0.09578367    -0.11500
C310        C  0.57162613  0.44285891  0.10366735     0.20100
C311        C  0.57628556  0.45023757  0.13316435    -0.13500
C312        C  0.55925617  0.43401127  0.15471894    -0.11800
C313        C  0.58870180  0.45990831  0.08145450     0.01000
C314        C  0.60240780  0.47461297  0.06274628    -0.31800
C315        C  0.51982480  0.39388758  0.16896512     0.02400
C316        C  0.50492902  0.38040004  0.18764711    -0.33500
H317        H  0.51608478  0.38473322  0.11103243     0.13500
H318        H  0.54608967  0.41336948  0.07300668     0.13300
H319        H  0.59295406  0.46856774  0.13945496     0.13100
H320        H  0.56295712  0.43993838  0.17747002     0.12200
C321        C  0.35101310  0.97040850  0.35625636     0.18500
C322        C  0.35457350  0.99476032  0.34895496    -0.10600
C323        C  0.36359306  0.01445016  0.37002132    -0.11500
C324        C  0.36907459  0.00983660  0.39845012     0.20100
C325        C  0.36506259  0.98534411  0.40587095    -0.13500
C326        C  0.35605952  0.96567778  0.38482489    -0.11800
C327        C  0.38012563  0.03047478  0.41964221     0.01000
C328        C  0.39074018  0.04711296  0.43795654    -0.31800
C329        C  0.34351197  0.95073167  0.33413323     0.02400
C330        C  0.33865025  0.93472605  0.31535519    -0.33500
H331        H  0.35084623  0.99865859  0.32688054     0.13500
H332        H  0.36674742  0.03335304  0.36401654     0.13300
H333        H  0.36936494  0.98161127  0.42775547     0.13100
H334        H  0.35349975  0.94696951  0.39066825     0.12200
C335        C  0.35145299  0.97178295  0.14823249     0.18500
C336        C  0.37408346  0.99542797  0.15390148    -0.10600
C337        C  0.38425302  0.01489546  0.13259728    -0.11500
C338        C  0.37185934  0.01087273  0.10546559     0.20100
C339        C  0.34910725  0.98730763  0.09985812    -0.13500
C340        C  0.33892625  0.96781514  0.12118778    -0.11800
C341        C  0.38311221  0.03051963  0.08307448     0.01000
C342        C  0.39372787  0.04670378  0.06426194    -0.31800
C343        C  0.34175936  0.95141536  0.16984517     0.02400
C344        C  0.33546030  0.93496744  0.18845573    -0.33500
H345        H  0.38402693  0.99869734  0.17465752     0.13500
H346        H  0.40192938  0.03294841  0.13714892     0.13300
H347        H  0.33942603  0.98389557  0.07890901     0.13100
H348        H  0.32149644  0.94958648  0.11647666     0.12200
C349        C  0.42690382  0.19342226  0.10274628     0.18500
C350        C  0.43036480  0.18980443  0.13234574    -0.10600
C351        C  0.43156225  0.20739124  0.15339903    -0.11500
C352        C  0.42931903  0.22869195  0.14496411     0.20100
C353        C  0.42542501  0.23207210  0.11542686    -0.13500
C354        C  0.42422456  0.21447981  0.09436922    -0.11800
C355        C  0.43162022  0.24733913  0.16653600     0.01000
C356        C  0.43395091  0.26278701  0.18504454    -0.31800
C357        C  0.42732852  0.17628142  0.08085836     0.02400
C358        C  0.42893840  0.16282725  0.06226373    -0.33500
H359        H  0.43252919  0.17364256  0.13907609     0.13500
H360        H  0.43456818  0.20457274  0.17617555     0.13300
H361        H  0.42365476  0.24845536  0.10864681     0.13100
H362        H  0.42160951  0.21751307  0.07153744     0.12200
C363        C  0.42918073  0.22777923  0.35260284     0.18500
C364        C  0.41822230  0.20119706  0.34701074    -0.10600
C365        C  0.41922536  0.18489060  0.36831887    -0.11500
C366        C  0.43120821  0.19506702  0.39534712     0.20100
C367        C  0.44210815  0.22163494  0.40094255    -0.13500
C368        C  0.44110507  0.23792807  0.37965197    -0.11800
C369        C  0.43256950  0.17839956  0.41725113     0.01000
C370        C  0.43427744  0.16505549  0.43594515    -0.31800
C371        C  0.42881678  0.24476651  0.33040803     0.02400
C372        C  0.42958592  0.25941304  0.31170259    -0.33500
H373        H  0.40904434  0.19311519  0.32615129     0.13500
H374        H  0.41076911  0.16440877  0.36368200     0.13300
H375        H  0.45147217  0.22976858  0.42170984     0.13100
H376        H  0.44974726  0.25844446  0.38421744     0.12200
C377        C  0.00746944  0.62505544  0.39638124     0.18500
C378        C  0.98325978  0.62218864  0.40249940    -0.10600
C379        C  0.96390796  0.61235240  0.38108731    -0.11500
C380        C  0.96875618  0.60536629  0.35355193     0.20100
C381        C  0.99306765  0.60856672  0.34735109    -0.13500
C382        C  0.01238182  0.61838220  0.36872297    -0.11800
C383        C  0.94861483  0.59389205  0.33196158     0.01000
C384        C  0.93240396  0.58318041  0.31332408    -0.31800
C385        C  0.02688531  0.63357190  0.41880686     0.02400
C386        C  0.04301164  0.63915743  0.43751296    -0.33500
H387        H  0.97923665  0.62715686  0.42390003     0.13500
H388        H  0.94511916  0.60983234  0.38611996     0.13300
H389        H  0.99695241  0.60310165  0.32615996     0.13100
H390        H  0.03098565  0.62037944  0.36384842     0.12200
C391        C  0.00809047  0.63025852  0.10371831     0.18500
C392        C  0.01423512  0.63303639  0.13360850    -0.10600
C393        C  0.99453554  0.62272119  0.15462712    -0.11500
C394        C  0.96852919  0.60953101  0.14593363     0.20100
C395        C  0.96236500  0.60704737  0.11604316    -0.13500
C396        C  0.98207740  0.61737261  0.09501107    -0.11800
C397        C  0.94831817  0.59765405  0.16765797     0.01000
C398        C  0.93202612  0.58693129  0.18635176    -0.31800
C399        C  0.02837766  0.63934857  0.08203798     0.02400
C400        C  0.04485824  0.64517365  0.06357312    -0.33500
H401        H  0.03423271  0.64279334  0.14065286     0.13500
H402        H  0.99958534  0.62468120  0.17764087     0.13300
H403        H  0.94236319  0.59680308  0.10899843     0.13100
H404        H  0.97703872  0.61493649  0.07198114     0.12200
C405        C  0.78575636  0.55097363  0.14679118     0.18500
C406        C  0.76325157  0.55084839  0.15530469    -0.10600
C407        C  0.74640931  0.55075380  0.13408364    -0.11500
C408        C  0.75205275  0.55078841  0.10432199     0.20100
C409        C  0.77477813  0.55137080  0.09583154    -0.13500
C410        C  0.79160968  0.55146463  0.11703947    -0.11800
C411        C  0.73411621  0.54923886  0.08246993     0.01000
C412        C  0.71904110  0.54709410  0.06373911    -0.31800
C413        C  0.80222218  0.54940034  0.16849668     0.02400
C414        C  0.81532160  0.54697267  0.18674061    -0.33500
H415        H  0.75853346  0.55039340  0.17827890     0.13500
H416        H  0.72884741  0.55024945  0.14084533     0.13300
H417        H  0.77926774  0.55134494  0.07285467     0.13100
H418        H  0.80893027  0.55148739  0.11025868     0.12200
C419        C  0.75506514  0.55377083  0.39712280     0.18500
C420        C  0.74788625  0.55070657  0.36753715    -0.10600
C421        C  0.76445951  0.55050571  0.34608985    -0.11500
C422        C  0.78834326  0.55336693  0.35405664     0.20100
C423        C  0.79562023  0.55660746  0.38363140    -0.13500
C424        C  0.77903163  0.55680839  0.40509844    -0.11800
C425        C  0.80498735  0.55230358  0.33194119     0.01000
C426        C  0.81809954  0.55052606  0.31303133    -0.31800
C427        C  0.73751441  0.55302161  0.41926491     0.02400
C428        C  0.72237046  0.55142110  0.43776496    -0.33500
H429        H  0.72939090  0.54824174  0.36107941     0.13500
H430        H  0.75855478  0.54789848  0.32332799     0.13300
H431        H  0.81398178  0.55875300  0.39010386     0.13100
H432        H  0.78478378  0.55909626  0.42789923     0.12200
C433        C  0.57422314  0.12546244  0.35517645     0.18500
C434        C  0.55140964  0.12467401  0.34655379    -0.10600
C435        C  0.53407623  0.12376422  0.36766112    -0.11500
C436        C  0.53948128  0.12362317  0.39748160     0.20100
C437        C  0.56227974  0.12438031  0.40610025    -0.13500
C438        C  0.57961328  0.12528846  0.38499160    -0.11800
C439        C  0.52151123  0.12234534  0.41922893     0.01000
C440        C  0.50642178  0.12074129  0.43771111    -0.31800
C441        C  0.59173095  0.12581390  0.33340201     0.02400
C442        C  0.60541761  0.12503292  0.31459783    -0.33500
H443        H  0.54698215  0.12464914  0.32354608     0.13500
H444        H  0.51646018  0.12307833  0.36075137     0.13300
H445        H  0.56659670  0.12417364  0.42910332     0.13100
H446        H  0.59711876  0.12574127  0.39189377     0.12200
C447        C  0.53838014  0.12747163  0.10596267     0.18500
C448        C  0.53223309  0.12647377  0.13571430    -0.10600
C449        C  0.54826185  0.12499719  0.15695037    -0.11500
C450        C  0.57047122  0.12449047  0.14850281     0.20100
C451        C  0.57669848  0.12568884  0.11877169    -0.13500
C452        C  0.56068961  0.12716874  0.09755875    -0.11800
C453        C  0.58664749  0.12231498  0.17023908     0.01000
C454        C  0.60001857  0.12015181  0.18840776    -0.31800
C455        C  0.52137420  0.12777602  0.08394154     0.02400
C456        C  0.50703469  0.12671276  0.06479150    -0.33500
H457        H  0.51496433  0.12657025  0.14244990     0.13500
H458        H  0.54324155  0.12403706  0.17988732     0.13300
H459        H  0.59378993  0.12526553  0.11199346     0.13100
H460        H  0.56555608  0.12780478  0.07460863     0.12200
C461        C  0.78988931  0.22468225  0.39538156     0.18500
C462        C  0.76525256  0.20467145  0.40357421    -0.10600
C463        C  0.74785103  0.18814345  0.38232109    -0.11500
C464        C  0.75495679  0.19150660  0.35270733     0.20100
C465        C  0.77973943  0.21124891  0.34455951    -0.13500
C466        C  0.79714403  0.22778414  0.36581775    -0.11800
C467        C  0.73658358  0.17531329  0.33062852     0.01000
C468        C  0.72110632  0.16237787  0.31193082    -0.31800
C469        C  0.80719881  0.24263129  0.41714795     0.02400
C470        C  0.82067210  0.25797595  0.43571399    -0.33500
H471        H  0.75935959  0.20209239  0.42632875     0.13500
H472        H  0.72875817  0.17299800  0.38892743     0.13300
H473        H  0.78547308  0.21408937  0.32174770     0.13100
H474        H  0.81608340  0.24320034  0.35915902     0.12200
C475        C  0.75002834  0.19592101  0.14479219     0.18500
C476        C  0.74289363  0.19221977  0.11518627    -0.10600
C477        C  0.76009014  0.20882234  0.09392433    -0.11500
C478        C  0.78451102  0.22921579  0.10215076     0.20100
C479        C  0.79168965  0.23285652  0.13174329    -0.13500
C480        C  0.77449179  0.21625074  0.15300759    -0.11800
C481        C  0.80190395  0.24671481  0.08030537     0.01000
C482        C  0.81584325  0.26157934  0.06176483    -0.31800
C483        C  0.73212345  0.17918410  0.16677034     0.02400
C484        C  0.71712805  0.16568465  0.18546393    -0.33500
H485        H  0.72401466  0.17662124  0.10857424     0.13500
H486        H  0.75429035  0.20586832  0.07112246     0.13300
H487        H  0.81047767  0.24860293  0.13837946     0.13100
H488        H  0.78019957  0.21934927  0.17583757     0.12200
C489        C  0.85200366  0.40419231  0.39473123     0.18500
C490        C  0.84864890  0.39742128  0.36500900    -0.10600
C491        C  0.84733464  0.41395070  0.34430561    -0.11500
C492        C  0.84935636  0.43734632  0.35318669     0.20100
C493        C  0.85244513  0.44400824  0.38294600    -0.13500
C494        C  0.85375457  0.42746829  0.40366009    -0.11800
C495        C  0.84943149  0.45495036  0.33159770     0.01000
C496        C  0.85088099  0.46982435  0.31283573    -0.31800
C497        C  0.85421707  0.38758836  0.41597357     0.02400
C498        C  0.85661660  0.37432182  0.43417150    -0.33500
H499        H  0.84731940  0.37952135  0.35781827     0.13500
H500        H  0.84507277  0.40864828  0.32134745     0.13300
H501        H  0.85416127  0.46209441  0.39007441     0.13100
H502        H  0.85639896  0.43294672  0.42657110     0.12200
C503        C  0.85657408  0.40772594  0.10061318     0.23300
C504        C  0.84587652  0.39745367  0.12807179    -0.10600
C505        C  0.84500477  0.41350457  0.14981954    -0.11500
C506        C  0.85480447  0.43989392  0.14419416     0.20100
C507        C  0.86529906  0.45010150  0.11665572    -0.13500
C508        C  0.86617113  0.43406312  0.09492492    -0.11800
C509        C  0.85492436  0.45671224  0.16688273     0.01000
C510        C  0.85628765  0.47141295  0.18584914    -0.31800
C511        C  0.85833998  0.39146969  0.07853206     0.02400
C512        C  0.86059226  0.37835562  0.06000246    -0.33500
H513        H  0.83845796  0.37713764  0.13274633     0.13500
H514        H  0.83694265  0.40541313  0.17106711     0.13300
H515        H  0.87303203  0.47048858  0.11209053     0.13100
H516        H  0.87454702  0.44224057  0.07380864     0.12200
C517        C  0.62672960  0.00975006  0.35220084     0.18500
C518        C  0.64052296  0.01340918  0.37825232    -0.10600
C519        C  0.63106221  0.99384072  0.39945108    -0.11500
C520        C  0.60780591  0.97057652  0.39462532     0.20100
C521        C  0.59423266  0.96682599  0.36840851    -0.13500
C522        C  0.60367439  0.98635321  0.34725295    -0.11800
C523        C  0.59700499  0.95110707  0.41710263     0.01000
C524        C  0.58631548  0.93508974  0.43597540    -0.31800
C525        C  0.63544591  0.03022790  0.33096589     0.02400
C526        C  0.64073984  0.04667079  0.31267167    -0.33500
H527        H  0.65831098  0.03147929  0.38235202     0.13500
H528        H  0.64161450  0.99700531  0.41974659     0.13300
H529        H  0.57614145  0.94899460  0.36454316     0.13100
H530        H  0.59279448  0.98337409  0.32724767     0.12200
C531        C  0.62739365  0.01020058  0.14641393     0.18500
C532        C  0.63560038  0.01593373  0.11726057    -0.10600
C533        C  0.62597910  0.99618702  0.09621916    -0.11500
C534        C  0.60810232  0.97060125  0.10421296     0.20100
C535        C  0.60006728  0.96482919  0.13342340    -0.13500
C536        C  0.60969154  0.98457439  0.15446508    -0.11800
C537        C  0.59714706  0.95056188  0.08221325     0.01000
C538        C  0.58705858  0.93440124  0.06324902    -0.31800
C539        C  0.63634030  0.03065414  0.16786707     0.02400
C540        C  0.64236880  0.04721237  0.18630309    -0.33500
H541        H  0.64916526  0.03567893  0.11074074     0.13500
H542        H  0.63220729  0.00091764  0.07367106     0.13300
H543        H  0.58613208  0.94516318  0.13984074     0.13100
H544        H  0.60309617  0.97992142  0.17690964     0.12200
C545        C  0.43839088  0.85342440  0.39540896     0.18500
C546        C  0.44384959  0.85417016  0.36548641    -0.10600
C547        C  0.42668063  0.85413874  0.34473478    -0.11500
C548        C  0.40397743  0.85336514  0.35379861     0.20100
C549        C  0.39846344  0.85252330  0.38372275    -0.13500
C550        C  0.41563643  0.85255103  0.40448128    -0.11800
C551        C  0.38676047  0.85411087  0.33236949     0.01000
C552        C  0.37330425  0.85566405  0.31381594    -0.31800
C553        C  0.45641780  0.85426576  0.41682438     0.02400
C554        C  0.47154807  0.85589453  0.43528481    -0.33500
H555        H  0.46143481  0.85497293  0.35822540     0.13500
H556        H  0.43119362  0.85491257  0.32165316     0.13300
H557        H  0.38103144  0.85204012  0.39098589     0.13100
H558        H  0.41128190  0.85209326  0.42757326     0.12200
C559        C  0.44073742  0.85986659  0.10305961     0.18500
C560        C  0.44491160  0.85671020  0.13258232    -0.10600
C561        C  0.42844326  0.85691405  0.15416675    -0.11500
C562        C  0.40772780  0.86027921  0.14633493     0.20100
C563        C  0.40351360  0.86334037  0.11680703    -0.13500
C564        C  0.41997059  0.86313475  0.09523574    -0.11800
C565        C  0.39112221  0.86110993  0.16858614     0.01000
C566        C  0.37764328  0.86246163  0.18729525    -0.31800
C567        C  0.45804196  0.86036385  0.08084285     0.02400
C568        C  0.47272810  0.86164923  0.06197678    -0.33500
H569        H  0.46095609  0.85426471  0.13891158     0.13500
H570        H  0.43194781  0.85461224  0.17693523     0.13300
H571        H  0.38762289  0.86604092  0.11049031     0.13100
H572        H  0.41660648  0.86568936  0.07249658     0.12200
C573        C  0.12463680  0.53974989  0.35547567     0.18500
C574        C  0.10875535  0.52983203  0.38019214    -0.10600
C575        C  0.10833870  0.54668804  0.40115392    -0.11500
C576        C  0.12378836  0.57357397  0.39753290     0.20100
C577        C  0.13976355  0.58351521  0.37287326    -0.13500
C578        C  0.14017966  0.56664135  0.35188854    -0.11800
C579        C  0.12301473  0.59082806  0.41904470     0.01000
C580        C  0.12161929  0.60449991  0.43754023    -0.31800
C581        C  0.12440354  0.52232157  0.33349105     0.02400
C582        C  0.12324802  0.50751770  0.31476393    -0.33500
H583        H  0.09658439  0.50909290  0.38315838     0.13500
H584        H  0.09588829  0.53876535  0.42010449     0.13300
H585        H  0.15177369  0.60425775  0.36981183     0.13100
H586        H  0.15246847  0.57454492  0.33281571     0.12200
C587        C  0.12093745  0.57336889  0.10523368     0.18500
C588        C  0.09844690  0.54967988  0.11097402    -0.10600
C589        C  0.09864339  0.53294113  0.13216353    -0.11500
C590        C  0.12133755  0.53977895  0.14774637     0.20100
C591        C  0.14387428  0.56346841  0.14201714    -0.13500
C592        C  0.14367842  0.58023978  0.12078126    -0.11800
C593        C  0.12124030  0.52253311  0.16978389     0.01000
C594        C  0.11993821  0.50758492  0.18833482    -0.31800
C595        C  0.12049030  0.59041014  0.08330225     0.02400
C596        C  0.11882810  0.60364757  0.06451989    -0.33500
H597        H  0.08076249  0.54416237  0.09908036     0.13500
H598        H  0.08109824  0.51470141  0.13643778     0.13300
H599        H  0.16152304  0.56897133  0.15397216     0.13100
H600        H  0.16118821  0.59850616  0.11651037     0.12200
C601        C  0.01059332  0.36934664  0.35335992     0.18500
C602        C  0.01708570  0.37801189  0.38230034    -0.10600
C603        C  0.99793806  0.36890548  0.40385882    -0.11500
C604        C  0.97220245  0.35109502  0.39658154     0.20100
C605        C  0.96578036  0.34196110  0.36776805    -0.13500
C606        C  0.98495265  0.35107982  0.34618137    -0.11800
C607        C  0.95230169  0.34346871  0.41833417     0.01000
C608        C  0.93612761  0.33877215  0.43675658    -0.31800
C609        C  0.02989436  0.38064304  0.33079810     0.02400
C610        C  0.04587725  0.39184982  0.31205711    -0.33500
H611        H  0.03681419  0.39226204  0.38804377     0.13500
H612        H  0.00309421  0.37619250  0.42603707     0.13300
H613        H  0.94591867  0.32828329  0.36187728     0.13100
H614        H  0.97969610  0.34438153  0.32382164     0.12200
C615        C  0.01159847  0.36976807  0.14458508     0.18500
C616        C  0.01673776  0.37909373  0.11577792    -0.10600
C617        C  0.99681506  0.36960424  0.09500612    -0.11500
C618        C  0.97156320  0.35072583  0.10284913     0.20100
C619        C  0.96647225  0.34110869  0.13155491    -0.13500
C620        C  0.98641882  0.35060538  0.15234870    -0.11800
C621        C  0.95087691  0.34209041  0.08166903     0.01000
C622        C  0.93438399  0.33648041  0.06322785    -0.31800
C623        C  0.03178991  0.38087922  0.16647304     0.02400
C624        C  0.04806693  0.39136017  0.18528309    -0.33500
H625        H  0.03604402  0.39400153  0.10949720     0.13500
H626        H  0.00102664  0.37728223  0.07294091     0.13300
H627        H  0.94705163  0.32658862  0.13796790     0.13100
H628        H  0.98212241  0.34332522  0.17457320     0.12200
C629        C  0.36927463  0.35082253  0.35423728     0.18500
C630        C  0.37647690  0.35180249  0.38357649    -0.10600
C631        C  0.36676318  0.36136260  0.40488764    -0.11500
C632        C  0.34982045  0.36998261  0.39693693     0.20100
C633        C  0.34233981  0.36870888  0.36764142    -0.13500
C634        C  0.35206268  0.35913036  0.34630144    -0.11800
C635        C  0.34144931  0.38152521  0.41864340     0.01000
C636        C  0.33654888  0.39263236  0.43727215    -0.31800
C637        C  0.38075632  0.34274580  0.33215224     0.02400
C638        C  0.39182125  0.33771380  0.31363533    -0.33500
H639        H  0.38994870  0.34563363  0.38987726     0.13500
H640        H  0.37283063  0.36248617  0.42745500     0.13300
H641        H  0.32941740  0.37554052  0.36125292     0.13100
H642        H  0.34655780  0.35864711  0.32361028     0.12200
C643        C  0.34713671  0.36996283  0.10595199     0.18500
C644        C  0.35577885  0.38247629  0.13303569    -0.10600
C645        C  0.36561298  0.37273665  0.15407239    -0.11500
C646        C  0.36691106  0.35041181  0.14820709     0.20100
C647        C  0.35787354  0.33762290  0.12130837    -0.13500
C648        C  0.34802225  0.34737636  0.10024022    -0.11800
C649        C  0.37848344  0.34141507  0.16939275     0.01000
C650        C  0.38930946  0.33568754  0.18766404    -0.31800
C651        C  0.33880062  0.38116917  0.08354792     0.02400
C652        C  0.33361643  0.39179681  0.06446957    -0.33500
H653        H  0.35534698  0.40001583  0.13768850     0.13500
H654        H  0.37260230  0.38286258  0.17472772     0.13300
H655        H  0.35883089  0.32040043  0.11644744     0.13100
H656        H  0.34153710  0.33758458  0.07933707     0.12200
C657        C  0.19173595  0.42731743  0.35423404     0.18500
C658        C  0.18599131  0.42684657  0.38406836    -0.10600
C659        C  0.20291449  0.42697485  0.40531534    -0.11500
C660        C  0.22569376  0.42757202  0.39687534     0.20100
C661        C  0.23130306  0.42779370  0.36704995    -0.13500
C662        C  0.21439011  0.42766408  0.34581653    -0.11800
C663        C  0.24364814  0.42872243  0.41874370     0.01000
C664        C  0.25896645  0.43055509  0.43715543    -0.31800
C665        C  0.17488876  0.42825715  0.33226766     0.02400
C666        C  0.16162916  0.42996781  0.31347627    -0.33500
H667        H  0.16859891  0.42665371  0.39089462     0.13500
H668        H  0.19837308  0.42687514  0.42829379     0.13300
H669        H  0.24886378  0.42833258  0.36021741     0.13100
H670        H  0.21911396  0.42810874  0.32284656     0.12200
C671        C  0.23007330  0.43733979  0.10252427     0.18500
C672        C  0.21216448  0.41402396  0.11599308    -0.10600
C673        C  0.19537014  0.41386520  0.13734526    -0.11500
C674        C  0.19642662  0.43701682  0.14526600     0.20100
C675        C  0.21422107  0.46029680  0.13164656    -0.13500
C676        C  0.23100448  0.46045564  0.11031030    -0.11800
C677        C  0.17957762  0.43703364  0.16764752     0.01000
C678        C  0.16604239  0.43780486  0.18663838    -0.31800
C679        C  0.24761870  0.43765349  0.08086530     0.02400
C680        C  0.26253430  0.43856926  0.06258676    -0.33500
H681        H  0.21127605  0.39604220  0.11009701     0.13500
H682        H  0.18168546  0.39576279  0.14776221     0.13300
H683        H  0.21520239  0.47830702  0.13762573     0.13100
H684        H  0.24476664  0.47858506  0.09999819     0.12200
C685        C  0.61120514  0.62887269  0.35143461     0.18500
C686        C  0.61445190  0.63799377  0.38028443    -0.10600
C687        C  0.62378656  0.62812059  0.40171668    -0.11500
C688        C  0.62989931  0.60909964  0.39435684     0.20100
C689        C  0.62712176  0.60034937  0.36539492    -0.13500
C690        C  0.61779482  0.61021801  0.34397538    -0.11800
C691        C  0.63750804  0.59743686  0.41676983     0.01000
C692        C  0.64226582  0.58645110  0.43568818    -0.31800
C693        C  0.59973043  0.63746206  0.32985389     0.02400
C694        C  0.58875848  0.64296186  0.31165543    -0.33500
H695        H  0.60927819  0.65230812  0.38631250     0.13500
H696        H  0.62572391  0.63490504  0.42409343     0.13300
H697        H  0.63164785  0.58553634  0.35951546     0.13100
H698        H  0.61521946  0.60292752  0.32176178     0.12200
C699        C  0.61141757  0.63211408  0.14466649     0.18500
C700        C  0.59863106  0.62291176  0.11783465    -0.10600
C701        C  0.60823521  0.61285415  0.09688443    -0.11500
C702        C  0.63069575  0.61187866  0.10258545     0.20100
C703        C  0.64360403  0.62121829  0.12935275    -0.13500
C704        C  0.63398357  0.63129464  0.15033906    -0.11800
C705        C  0.63987593  0.60059594  0.08120954     0.01000
C706        C  0.64574061  0.59010351  0.06261878    -0.31800
C707        C  0.60070214  0.64130024  0.16673348     0.02400
C708        C  0.59051025  0.64731863  0.18551500    -0.33500
H709        H  0.58108180  0.62324922  0.11323587     0.13500
H710        H  0.59799772  0.60559566  0.07635395     0.13300
H711        H  0.66091296  0.62047546  0.13410518     0.13100
H712        H  0.64396136  0.63817116  0.17106831     0.12200
C713        C  0.40952199  0.54080999  0.10323443     0.18500
C714        C  0.42705885  0.53564815  0.11760039    -0.10600
C715        C  0.44381533  0.55283582  0.13876013    -0.11500
C716        C  0.44315437  0.57530330  0.14571876     0.20100
C717        C  0.42559464  0.58050470  0.13139924    -0.13500
C718        C  0.40879955  0.56327627  0.11017926    -0.11800
C719        C  0.46044034  0.59271597  0.16772279     0.01000
C720        C  0.47534290  0.60605904  0.18659122    -0.31800
C721        C  0.39264487  0.52316902  0.08111940     0.02400
C722        C  0.37927901  0.50808553  0.06238232    -0.33500
H723        H  0.42782356  0.51837328  0.11238683     0.13500
H724        H  0.45729028  0.54860585  0.14970245     0.13300
H725        H  0.42489510  0.59781013  0.13662062     0.13100
H726        H  0.39534102  0.56748478  0.09917107     0.12200
C727        C  0.40623999  0.54077834  0.39433134     0.18500
C728        C  0.40726776  0.53212689  0.36610719    -0.10600
C729        C  0.42435874  0.54955989  0.34532364    -0.11500
C730        C  0.44052752  0.57573916  0.35263998     0.20100
C731        C  0.43932852  0.58443799  0.38077503    -0.13500
C732        C  0.42223334  0.56700395  0.40155927    -0.11800
C733        C  0.45873141  0.59343997  0.33148270     0.01000
C734        C  0.47408076  0.60740300  0.31331195    -0.31800
C735        C  0.38934547  0.52268699  0.41610917     0.02400
C736        C  0.37593282  0.50772861  0.43490158    -0.33500
H737        H  0.39505681  0.51189985  0.36026765     0.13500
H738        H  0.42514032  0.54258883  0.32365847     0.13300
H739        H  0.45175400  0.60460688  0.38671489     0.13100
H740        H  0.42166163  0.57391573  0.42332734     0.12200
C741        C  0.54705635  0.75379182  0.14766711     0.18500
C742        C  0.52759675  0.74388983  0.12631446    -0.10600
C743        C  0.52676315  0.76037598  0.10523407    -0.11500
C744        C  0.54537281  0.78683731  0.10542323     0.20100
C745        C  0.56475235  0.79677968  0.12687249    -0.13500
C746        C  0.56558512  0.78028003  0.14797191    -0.11800
C747        C  0.54463798  0.80363630  0.08342014     0.01000
C748        C  0.54341963  0.81697193  0.06446025    -0.31800
C749        C  0.54774315  0.73678094  0.16941835     0.02400
C750        C  0.54724666  0.72208067  0.18777311    -0.33500
H751        H  0.51310917  0.72345753  0.12595936     0.13500
H752        H  0.51167526  0.75249662  0.08876368     0.13300
H753        H  0.57921297  0.81721723  0.12723120     0.13100
H754        H  0.58064580  0.78814715  0.16447044     0.12200
C755        C  0.55664957  0.75600109  0.35560212     0.18500
C756        C  0.56879046  0.78275400  0.35045778    -0.10600
C757        C  0.56803998  0.79925912  0.37174638    -0.11500
C758        C  0.55512272  0.78912004  0.39831733     0.20100
C759        C  0.54328456  0.76242017  0.40359559    -0.13500
C760        C  0.54403439  0.74593024  0.38232614    -0.11800
C761        C  0.55334463  0.80588273  0.41983802     0.01000
C762        C  0.55096816  0.81923287  0.43803148    -0.31800
C763        C  0.55619848  0.73875376  0.33311585     0.02400
C764        C  0.55455182  0.72394006  0.31405608    -0.33500
H765        H  0.57853685  0.79080027  0.32986941     0.13500
H766        H  0.57724540  0.81984220  0.36735044     0.13300
H767        H  0.53320613  0.75430788  0.42400608     0.13100
H768        H  0.53449531  0.72529877  0.38656859     0.12200
O769        O  0.51310015  0.61925742  0.71183624    -0.83900
O770        O  0.56298640  0.63318998  0.72623143    -0.80900
C771        C  0.57651481  0.65137461  0.70867709     0.99600
O772        O  0.57820410  0.67314724  0.71131589    -0.80900
O773        O  0.56373102  0.70887126  0.72556747    -0.83600
C774        C  0.54457465  0.70390816  0.70949534     1.04100
O775        O  0.52293290  0.68381832  0.71326861    -0.76400
O776        O  0.48787591  0.63353028  0.72727730    -0.76500
C777        C  0.49287035  0.62051222  0.70935141     1.04100
O778        O  0.49891772  0.61162671  0.77268059    -0.83900
O779        O  0.55001971  0.63107789  0.78681538    -0.80900
C780        C  0.57377225  0.64716955  0.78959767     0.99600
O781        O  0.58527560  0.66641369  0.77257944    -0.81000
O782        O  0.56713287  0.69908506  0.78672664    -0.83600
C783        C  0.55079499  0.70613198  0.79053934     1.04100
O784        O  0.53126140  0.69796228  0.77405684    -0.76400
O785        O  0.49968692  0.64661752  0.78848715    -0.76500
C786        C  0.49181309  0.62279907  0.79073906     1.04000
Cr787      Cr  0.53177216  0.62635750  0.74940946     1.93700
Cr788      Cr  0.57103617  0.68485680  0.74907503     1.93200
Cr789      Cr  0.51251015  0.66500634  0.75074099     1.39100
O790        O  0.53850278  0.65883232  0.74976471    -1.21600
O791        O  0.36456815  0.46904945  0.53696949    -0.83900
O792        O  0.34812973  0.41831002  0.52320607    -0.80900
C793        C  0.32990292  0.40560409  0.54103492     0.99600
O794        O  0.30860482  0.40478301  0.53831125    -0.80900
O795        O  0.27452833  0.42117241  0.52404436    -0.83600
C796        C  0.28038850  0.44050852  0.54030116     1.04100
O797        O  0.30104928  0.46170738  0.53662782    -0.76400
O798        O  0.35151807  0.49535583  0.52175464    -0.76500
C799        C  0.36423093  0.48982360  0.53945640     1.04100
O800        O  0.37186162  0.48287653  0.97616652    -0.83900
O801        O  0.35041569  0.43141413  0.96254845    -0.80900
C802        C  0.33357886  0.40785123  0.95980876     0.99600
O803        O  0.31460019  0.39694964  0.97718251    -0.81000
O804        O  0.28387540  0.41728009  0.96297326    -0.83600
C805        C  0.27747514  0.43417543  0.95956831     1.04100
O806        O  0.28632623  0.45377063  0.97615947    -0.76400
O807        O  0.33757730  0.48373723  0.96114344    -0.76500
C808        C  0.36103604  0.49053664  0.95831965     1.04000
Cr809      Cr  0.35624176  0.45008271  0.99986725     1.93700
Cr810      Cr  0.29748202  0.41260106  0.00059729     1.93200
Cr811      Cr  0.31947272  0.47159516  0.99909287     1.39100
O812        O  0.32433951  0.44472060  0.99986468    -1.21600
O813        O  0.09587417  0.46871545  0.71276981    -0.83900
O814        O  0.06089588  0.41806515  0.72638629    -0.80900
C815        C  0.06622669  0.40540386  0.70840041     0.99600
O816        O  0.08664845  0.40446704  0.71108895    -0.80900
O817        O  0.13723380  0.42059503  0.72554552    -0.83600
C818        C  0.15089601  0.43992914  0.70934099     1.04100
O819        O  0.15194953  0.46123996  0.71335541    -0.76400
O820        O  0.13552783  0.49496893  0.72801665    -0.76500
C821        C  0.11717140  0.48950779  0.71039722     1.04100
O822        O  0.10223473  0.48230833  0.77379358    -0.83900
O823        O  0.07157976  0.43072797  0.78727138    -0.80900
C824        C  0.06447601  0.40709863  0.78973386     0.99600
O825        O  0.07252024  0.39627428  0.77229565    -0.81000
O826        O  0.12373161  0.41636853  0.78663978    -0.83600
C827        C  0.14710770  0.43335369  0.79050809     1.04100
O828        O  0.15819329  0.45303813  0.77410920    -0.76400
O829        O  0.13733410  0.48316541  0.78899143    -0.76500
C830        C  0.12079328  0.49005151  0.79165233     1.04000
Cr831      Cr  0.08473870  0.44952530  0.75005693     1.93700
Cr832      Cr  0.10549068  0.41194087  0.74895772     1.93200
Cr833      Cr  0.14323567  0.47097481  0.75106383     1.39100
O834        O  0.11119187  0.44411231  0.75003832    -1.21600
O835        O  0.51125615  0.88615401  0.53626039    -0.83900
O836        O  0.56135201  0.92140436  0.52158620    -0.80900
C837        C  0.57394836  0.91643010  0.53998320     0.99600
O838        O  0.57529629  0.89617433  0.53776529    -0.80900
O839        O  0.56027354  0.84563590  0.52456481    -0.83600
C840        C  0.54125858  0.83206952  0.54116726     1.04100
O841        O  0.51980244  0.83058483  0.53725063    -0.76400
O842        O  0.48539818  0.84593694  0.52220411    -0.76500
C843        C  0.49079868  0.86466271  0.53934926     1.04100
O844        O  0.49682484  0.87788911  0.97545828    -0.83900
O845        O  0.54799715  0.90888857  0.96104710    -0.80900
C846        C  0.57166876  0.91648759  0.95856167     0.99600
O847        O  0.58287408  0.90911660  0.97630618    -0.81000
O848        O  0.56363865  0.85757652  0.96343484    -0.83600
C849        C  0.54705278  0.83392741  0.96030441     1.04100
O850        O  0.52743942  0.82293223  0.97679206    -0.76400
O851        O  0.49649202  0.84269560  0.96126443    -0.76500
C852        C  0.48923150  0.85893459  0.95812901     1.04000
Cr853      Cr  0.52972271  0.89641581  0.99862630     1.93700
Cr854      Cr  0.56791296  0.87652942  0.00052844     1.93200
Cr855      Cr  0.50922516  0.83792878  0.99937831     1.39100
O856        O  0.53564435  0.87024081  0.99945627    -1.21600
O857        O  0.88541350  0.36462309  0.53545381    -0.83900
O858        O  0.92094444  0.35001291  0.52229082    -0.80900
C859        C  0.91593646  0.33200196  0.54023532     0.99600
O860        O  0.89566773  0.31019953  0.53764432    -0.80900
O861        O  0.84523651  0.27424584  0.52330142    -0.83600
C862        C  0.83123291  0.27938451  0.53937901     1.04100
O863        O  0.82995660  0.29950555  0.53537210    -0.76400
O864        O  0.84556456  0.34968920  0.52032912    -0.76500
C865        C  0.86388604  0.36332034  0.53780422     1.04100
O866        O  0.87910359  0.37113432  0.97431420    -0.83900
O867        O  0.91049872  0.35135744  0.96124872    -0.80900
C868        C  0.91788984  0.33514659  0.95892354     0.99600
O869        O  0.91005826  0.31628874  0.97647361    -0.81000
O870        O  0.85897395  0.28371453  0.96211794    -0.83600
C871        C  0.83547995  0.27650581  0.95833871     1.04100
O872        O  0.82418233  0.28479962  0.97462703    -0.76400
O873        O  0.84419988  0.33594226  0.95945929    -0.76500
C874        C  0.86035459  0.35972147  0.95672612     1.04000
Cr875      Cr  0.89702629  0.35673218  0.99834872     1.93700
Cr876      Cr  0.87709000  0.29819397  0.99977401     1.93200
Cr877      Cr  0.83865016  0.31801146  0.99746954     1.39100
O878        O  0.87089740  0.32425901  0.99852519    -1.21600
O879        O  0.61440227  0.09562742  0.71324058    -0.83900
O880        O  0.62950854  0.06063760  0.72750508    -0.80900
C881        C  0.64730618  0.06561531  0.70936469     0.99600
O882        O  0.66899149  0.08604958  0.71150767    -0.80900
O883        O  0.70470341  0.13680433  0.72498060    -0.83600
C884        C  0.69938575  0.15043446  0.70845846     1.04100
O885        O  0.67923436  0.15161748  0.71226350    -0.76400
O886        O  0.62913371  0.13579494  0.72755163    -0.76500
C887        C  0.61540430  0.11704989  0.71054950     1.04100
O888        O  0.60837754  0.10325046  0.77402480    -0.83900
O889        O  0.62852792  0.07249746  0.78816494    -0.80900
C890        C  0.64464599  0.06504784  0.79058101     0.99600
O891        O  0.66331629  0.07262319  0.77285985    -0.81000
O892        O  0.69551093  0.12405350  0.78626713    -0.83600
C893        C  0.70264990  0.14763724  0.78959050     1.04100
O894        O  0.69436511  0.15872421  0.77293189    -0.76400
O895        O  0.64341916  0.13855171  0.78836133    -0.76500
C896        C  0.61983210  0.12206332  0.79152768     1.04000
Cr897      Cr  0.62276056  0.08507427  0.75066830     1.93700
Cr898      Cr  0.68111548  0.10536351  0.74895134     1.93200
Cr899      Cr  0.66107709  0.14366389  0.75025348     1.39100
O900        O  0.65503867  0.11140723  0.74992132    -1.21600
O901        O  0.88156453  0.50969024  0.71168367    -0.83900
O902        O  0.91793701  0.55948579  0.72662179    -0.80900
C903        C  0.91363525  0.57324605  0.70914065     0.99600
O904        O  0.89390866  0.57538741  0.71200993    -0.80900
O905        O  0.84389397  0.56151922  0.72616310    -0.83600
C906        C  0.82994486  0.54308154  0.70897508     1.04100
O907        O  0.82791145  0.52119973  0.71168843    -0.76400
O908        O  0.84126267  0.48480044  0.72556721    -0.76500
C909        C  0.85979224  0.48960979  0.70851101     1.04100
O910        O  0.87350732  0.49496823  0.77238232    -0.83900
O911        O  0.90601810  0.54576115  0.78730380    -0.80900
C912        C  0.91427932  0.56957135  0.79045349     0.99600
O913        O  0.90747005  0.58156629  0.77323398    -0.81000
O914        O  0.85646639  0.56325198  0.78714852    -0.83600
C915        C  0.83269241  0.54721175  0.79003465     1.04100
O916        O  0.82104228  0.52832298  0.77257777    -0.76400
O917        O  0.83895350  0.49561028  0.78681481    -0.76500
C918        C  0.85474907  0.48780299  0.78982558     1.04000
Cr919      Cr  0.89278158  0.52804170  0.74949025     1.93700
Cr920      Cr  0.87486331  0.56789125  0.74960584     1.93200
Cr921      Cr  0.83483085  0.50947586  0.74916498     1.39100
O922        O  0.86747149  0.53515028  0.74939783    -1.21600
O923        O  0.48259710  0.10472013  0.52395059    -0.83900
O924        O  0.43172447  0.07317771  0.53879666    -0.80900
C925        C  0.40803754  0.06532739  0.54170035     0.99600
O926        O  0.39656223  0.07274489  0.52438538    -0.80900
O927        O  0.41596569  0.12429478  0.53722167    -0.83600
C928        C  0.43239054  0.14801053  0.53993593     1.04100
O929        O  0.45141064  0.15914109  0.52268094    -0.76400
O930        O  0.48266363  0.13982151  0.53802712    -0.76500
C931        C  0.48984843  0.12354636  0.54140829     1.04100
O932        O  0.46789113  0.09630337  0.96324115    -0.83900
O933        O  0.41797001  0.06088512  0.97838094    -0.80900
C934        C  0.40469873  0.06547507  0.96054406     0.99600
O935        O  0.40323873  0.08565877  0.96276254    -0.81000
O936        O  0.41826496  0.13629475  0.97558614    -0.83600
C937        C  0.43698521  0.14988356  0.95855534     1.04100
O938        O  0.45852599  0.15138395  0.96194264    -0.76400
O939        O  0.49356022  0.13662382  0.97702340    -0.76500
C940        C  0.48828717  0.11782380  0.96008696     1.04000
Cr941      Cr  0.44952841  0.08581531  0.00102528     1.93700
Cr942      Cr  0.41091621  0.10519979  0.99996149     1.93200
Cr943      Cr  0.46943633  0.14420524  0.99989626     1.39100
O944        O  0.44326636  0.11176167  0.00028308    -1.21600
O945        O  0.61670224  0.51248889  0.53702783    -0.83900
O946        O  0.63158359  0.56239681  0.52193212    -0.80900
C947        C  0.64957717  0.57556992  0.53989756     0.99600
O948        O  0.67126183  0.57720821  0.53734802    -0.80900
O949        O  0.70662128  0.56238112  0.52396537    -0.83600
C950        C  0.70126094  0.54379188  0.54115368     1.04100
O951        O  0.68103305  0.52212520  0.53797434    -0.76400
O952        O  0.63095641  0.48674929  0.52336278    -0.76500
C953        C  0.61763942  0.49212390  0.54029565     1.04100
O954        O  0.60980505  0.49785800  0.97659180    -0.83900
O955        O  0.62988921  0.54891199  0.96140864    -0.80900
C956        C  0.64618104  0.57260866  0.95834114     0.99600
O957        O  0.66523247  0.58417247  0.97555877    -0.81000
O958        O  0.69700419  0.56467841  0.96248990    -0.83600
C959        C  0.70401430  0.54816544  0.95985027     1.04100
O960        O  0.69569378  0.52904113  0.97704557    -0.76400
O961        O  0.64450573  0.49742890  0.96225916    -0.76500
C962        C  0.62085631  0.48987743  0.95949376     1.04000
Cr963      Cr  0.62467420  0.53115644  0.99925309     1.93700
Cr964      Cr  0.68312518  0.56976202  0.99969990     1.93200
Cr965      Cr  0.66260089  0.51100720  0.99999740     1.39100
O966        O  0.65685129  0.53733550  0.99958173    -1.21600
O967        O  0.46681583  0.36553253  0.71364670    -0.83900
O968        O  0.41669616  0.34947970  0.72845705    -0.80900
C969        C  0.40361144  0.33149823  0.71038693     0.99600
O970        O  0.40244458  0.30992398  0.71239051    -0.80900
O971        O  0.41807873  0.27487403  0.72510339    -0.83600
C972        C  0.43679792  0.28057829  0.70801363     1.04100
O973        O  0.45820142  0.30111209  0.71138245    -0.76400
O974        O  0.49274924  0.35146670  0.72695086    -0.76500
C975        C  0.48727393  0.36488355  0.71029535     1.04100
O976        O  0.48129262  0.37160627  0.77443805    -0.83900
O977        O  0.43022823  0.35063718  0.78898221    -0.80900
C978        C  0.40657711  0.33422808  0.79148226     0.99600
O979        O  0.39538314  0.31539517  0.77386318    -0.81000
O980        O  0.41538902  0.28396905  0.78657159    -0.83600
C981        C  0.43211930  0.27728436  0.78919223     1.04100
O982        O  0.45110903  0.28573384  0.77185817    -0.76400
O983        O  0.48196040  0.33670040  0.78763867    -0.76500
C984        C  0.48900595  0.36020100  0.79136053     1.04000
Cr985      Cr  0.44831176  0.35679324  0.75129243     1.93700
Cr986      Cr  0.41030845  0.29808050  0.74952100     1.93200
Cr987      Cr  0.46894778  0.31918983  0.74949008     1.39100
O988        O  0.44250604  0.32465122  0.75008227    -1.21600
O989        O  0.09383952  0.61696420  0.53886427    -0.83900
O990        O  0.05824691  0.63093011  0.52369417    -0.80900
C991        C  0.06313119  0.64949041  0.54075026     0.99600
O992        O  0.08333179  0.67126746  0.53763140    -0.80900
O993        O  0.13388927  0.70667918  0.52321451    -0.83600
C994        C  0.14782055  0.70200664  0.54000871     1.04100
O995        O  0.14913583  0.68178659  0.53706056    -0.76400
O996        O  0.13356195  0.63116731  0.52387497    -0.76500
C997        C  0.11530596  0.61821185  0.54163556     1.04100
O998        O  0.10066365  0.60854009  0.97828216    -0.83900
O999        O  0.06919206  0.62762278  0.96331351    -0.80900
C1000       C  0.06173141  0.64367243  0.95989275     0.99600
O1001       O  0.06958176  0.66318175  0.97650643    -0.81000
O1002       O  0.12076283  0.69545364  0.96223892    -0.83600
C1003       C  0.14429059  0.70259541  0.95891935     1.04100
O1004       O  0.15551533  0.69486979  0.97607569    -0.76400
O1005       O  0.13536094  0.64339248  0.96251691    -0.76500
C1006       C  0.11908771  0.61959105  0.96027665     1.04000
Cr1007     Cr  0.08261895  0.62352198  0.00103242     1.93700
Cr1008     Cr  0.10240423  0.68203977  0.00000037     1.93200
Cr1009     Cr  0.14092135  0.66228220  0.99992232     1.39100
O1010       O  0.10866360  0.65601853  0.00033795    -1.21600
O1011       O  0.36353569  0.88623686  0.71336898    -0.83900
O1012       O  0.34887375  0.92122202  0.72901529    -0.80900
C1013       C  0.33086184  0.91648124  0.71124660     0.99600
O1014       O  0.30904136  0.89624093  0.71367115    -0.80900
O1015       O  0.27323992  0.84541862  0.72668680    -0.83600
C1016       C  0.27826013  0.83203897  0.70936181     1.04100
O1017       O  0.29842767  0.83073411  0.71232676    -0.76400
O1018       O  0.34864755  0.84581908  0.72654074    -0.76500
C1019       C  0.36233568  0.86479626  0.70985311     1.04100
O1020       O  0.37008038  0.87779731  0.77387464    -0.83900
O1021       O  0.35056608  0.90883672  0.78939301    -0.80900
C1022       C  0.33457421  0.91637168  0.79253684     0.99600
O1023       O  0.31566039  0.90901205  0.77521068    -0.81000
O1024       O  0.28340816  0.85736919  0.78808567    -0.83600
C1025       C  0.27616539  0.83368431  0.79066259     1.04100
O1026       O  0.28405060  0.82278161  0.77315753    -0.76400
O1027       O  0.33503256  0.84230144  0.78770909    -0.76500
C1028       C  0.35864845  0.85866923  0.79094527     1.04000
Cr1029     Cr  0.35569502  0.89645365  0.75136758     1.93700
Cr1030     Cr  0.29735347  0.87652612  0.75089418     1.93200
Cr1031     Cr  0.31703055  0.83793734  0.74998498     1.39100
O1032       O  0.32331868  0.87027958  0.75073457    -1.21600
C1033       C  0.22487985  0.78752854  0.85348343     0.18500
C1034       C  0.23174505  0.79079288  0.88318050    -0.10600
C1035       C  0.21446777  0.77372269  0.90411843    -0.11500
C1036       C  0.19019298  0.75325510  0.89553303     0.20100
C1037       C  0.18329346  0.75002416  0.86584235    -0.13500
C1038       C  0.20057671  0.76710246  0.84489632    -0.11800
C1039       C  0.17270235  0.73533396  0.91714477     0.01000
C1040       C  0.15901183  0.72035551  0.93582280    -0.31800
C1041       C  0.24293370  0.80473854  0.83179048     0.02400
C1042       C  0.25810747  0.81847642  0.81329507    -0.33500
H1043       H  0.25048845  0.80641902  0.89012129     0.13500
H1044       H  0.22009714  0.77639111  0.92697367     0.13300
H1045       H  0.16464951  0.73424196  0.85887727     0.13100
H1046       H  0.19505500  0.76428800  0.82200665     0.12200
C1047       C  0.22771425  0.78757466  0.64525204     0.18500
C1048       C  0.23726401  0.78631212  0.61767821    -0.10600
C1049       C  0.22046706  0.76952254  0.59622073    -0.11500
C1050       C  0.19402268  0.75389069  0.60221533     0.20100
C1051       C  0.18441866  0.75533336  0.62969160    -0.13500
C1052       C  0.20122622  0.77213331  0.65116236    -0.11800
C1053       C  0.17694635  0.73590669  0.58044969     0.01000
C1054       C  0.16323369  0.72052429  0.56212067    -0.31800
C1055       C  0.24522470  0.80407891  0.66769956     0.02400
C1056       C  0.26021306  0.81725437  0.68660635    -0.33500
H1057       H  0.25770877  0.79808996  0.61288269     0.13500
H1058       H  0.22812975  0.76853395  0.57508437     0.13300
H1059       H  0.16402558  0.74330165  0.63460267     0.13100
H1060       H  0.19362768  0.77288084  0.67243147     0.12200
C1061       C  0.53906448  0.40360939  0.85630358     0.18500
C1062       C  0.56499933  0.40998385  0.85574022    -0.10600
C1063       C  0.58236067  0.42682674  0.87679647    -0.11500
C1064       C  0.57384610  0.43736693  0.89847736     0.20100
C1065       C  0.54783272  0.43067309  0.89928830    -0.13500
C1066       C  0.53049251  0.41385198  0.87825542    -0.11800
C1067       C  0.59178109  0.45557509  0.91945845     0.01000
C1068       C  0.60580824  0.47123676  0.93735893    -0.31800
C1069       C  0.52144124  0.38734394  0.83382447     0.02400
C1070       C  0.50662846  0.37454070  0.81461561    -0.33500
H1071       H  0.57185105  0.40221288  0.83883433     0.13500
H1072       H  0.60242731  0.43186844  0.87595832     0.13300
H1073       H  0.54103587  0.43871027  0.91595080     0.13100
H1074       H  0.51050601  0.40910388  0.87888140     0.12200
C1075       C  0.53757376  0.41036498  0.64706823     0.18500
C1076       C  0.53239056  0.40333698  0.61751773    -0.10600
C1077       C  0.54940269  0.41950509  0.59592122    -0.11500
C1078       C  0.57163545  0.44272840  0.60383222     0.20100
C1079       C  0.57682481  0.44974774  0.63338592    -0.13500
C1080       C  0.55981336  0.43357940  0.65498251    -0.11800
C1081       C  0.58873229  0.45967789  0.58159351     0.01000
C1082       C  0.60242220  0.47428379  0.56282065    -0.31800
C1083       C  0.51995047  0.39390805  0.66923714     0.02400
C1084       C  0.50507801  0.38039807  0.68790863    -0.33500
H1085       H  0.51519221  0.38545550  0.61119658     0.13500
H1086       H  0.54516565  0.41398974  0.57309914     0.13300
H1087       H  0.59390341  0.46774121  0.63969169     0.13100
H1088       H  0.56393081  0.43920545  0.67778833     0.12200
C1089       C  0.35105542  0.97022054  0.85625843     0.18500
C1090       C  0.35416906  0.99442180  0.84910190    -0.10600
C1091       C  0.36319591  0.01411486  0.87016438    -0.11500
C1092       C  0.36913064  0.00965147  0.89844088     0.20100
C1093       C  0.36557052  0.98530515  0.90571976    -0.13500
C1094       C  0.35656109  0.96563727  0.88467893    -0.11800
C1095       C  0.38015499  0.03029874  0.91961920     0.01000
C1096       C  0.39073605  0.04693580  0.93793961    -0.31800
C1097       C  0.34353969  0.95056047  0.83411902     0.02400
C1098       C  0.33867187  0.93457196  0.81532252    -0.33500
H1099       H  0.35008414  0.99820439  0.82713858     0.13500
H1100       H  0.36599585  0.03290574  0.86427049     0.13300
H1101       H  0.37022229  0.98169137  0.92748524     0.13100
H1102       H  0.35434871  0.94704675  0.89040502     0.12200
C1103       C  0.35161708  0.97170121  0.64815192     0.18500
C1104       C  0.37453781  0.99514521  0.65358161    -0.10600
C1105       C  0.38468596  0.01462109  0.63228494    -0.11500
C1106       C  0.37198242  0.01081434  0.60539545     0.20100
C1107       C  0.34894571  0.98744964  0.60002591    -0.13500
C1108       C  0.33878521  0.96794712  0.62135027    -0.11800
C1109       C  0.38318707  0.03047694  0.58300591     0.01000
C1110       C  0.39378580  0.04669261  0.56421432    -0.31800
C1111       C  0.34191107  0.95132350  0.66976151     0.02400
C1112       C  0.33559232  0.93487086  0.68837489    -0.33500
H1113       H  0.38471577  0.99825178  0.67414664     0.13500
H1114       H  0.40257970  0.03251466  0.63665329     0.13300
H1115       H  0.33901715  0.98420093  0.57926609     0.13100
H1116       H  0.32112391  0.94987657  0.61682237     0.12200
C1117       C  0.42727623  0.19352755  0.60300422     0.18500
C1118       C  0.43111347  0.19014885  0.63255909    -0.10600
C1119       C  0.43221001  0.20770041  0.65359556    -0.11500
C1120       C  0.42949058  0.22872516  0.64518484     0.20100
C1121       C  0.42525480  0.23187971  0.61569290    -0.13500
C1122       C  0.42415516  0.21432308  0.59465314    -0.11800
C1123       C  0.43165263  0.24732914  0.66672941     0.01000
C1124       C  0.43391051  0.26276463  0.68521242    -0.31800
C1125       C  0.42770011  0.17638598  0.58112214     0.02400
C1126       C  0.42925552  0.16292461  0.56249785    -0.33500
H1127       H  0.43362404  0.17419216  0.63926579     0.13500
H1128       H  0.43549263  0.20506551  0.67633709     0.13300
H1129       H  0.42312501  0.24805497  0.60893330     0.13100
H1130       H  0.42124984  0.21717086  0.57185342     0.12200
C1131       C  0.42903786  0.22764197  0.85257239     0.18500
C1132       C  0.41818442  0.20109672  0.84683086    -0.10600
C1133       C  0.41915613  0.18473033  0.86807689    -0.11500
C1134       C  0.43100301  0.19481615  0.89518615     0.20100
C1135       C  0.44179791  0.22134681  0.90092844    -0.13500
C1136       C  0.44082621  0.23769882  0.87970090    -0.11800
C1137       C  0.43233556  0.17810216  0.91703568     0.01000
C1138       C  0.43404583  0.16477089  0.93573686    -0.31800
C1139       C  0.42871363  0.24469060  0.83044669     0.02400
C1140       C  0.42951760  0.25937926  0.81178439    -0.33500
H1141       H  0.40911420  0.19309181  0.82590435     0.13500
H1142       H  0.41078319  0.16427706  0.86333117     0.13300
H1143       H  0.45105576  0.22940586  0.92176231     0.13100
H1144       H  0.44938682  0.25818771  0.88437640     0.12200
C1145       C  0.00765307  0.62499265  0.89631168     0.18500
C1146       C  0.98342328  0.62207248  0.90244476    -0.10600
C1147       C  0.96410747  0.61234155  0.88098915    -0.11500
C1148       C  0.96900753  0.60551376  0.85338824     0.20100
C1149       C  0.99333667  0.60876067  0.84717484    -0.13500
C1150       C  0.01261615  0.61847113  0.86859200    -0.11800
C1151       C  0.94889091  0.59412720  0.83175268     0.01000
C1152       C  0.93266961  0.58344127  0.81311530    -0.31800
C1153       C  0.02704326  0.63343613  0.91877062     0.02400
C1154       C  0.04314117  0.63899889  0.93751287    -0.33500
H1155       H  0.97935761  0.62692299  0.92388878     0.13500
H1156       H  0.94530432  0.60977928  0.88603743     0.13300
H1157       H  0.99726234  0.60341240  0.82593609     0.13100
H1158       H  0.03123451  0.62051013  0.86369942     0.12200
C1159       C  0.00809978  0.63046386  0.60366086     0.18500
C1160       C  0.01422387  0.63327447  0.63355621    -0.10600
C1161       C  0.99450789  0.62293029  0.65455108    -0.11500
C1162       C  0.96851131  0.60967968  0.64582234     0.20100
C1163       C  0.96236827  0.60715232  0.61592677    -0.13500
C1164       C  0.98209600  0.61750617  0.59491983    -0.11800
C1165       C  0.94828882  0.59777813  0.66751763     0.01000
C1166       C  0.93199755  0.58702697  0.68619808    -0.31800
C1167       C  0.02839948  0.63959494  0.58200443     0.02400
C1168       C  0.04486843  0.64542819  0.56353019    -0.33500
H1169       H  0.03421687  0.64308274  0.64062225     0.13500
H1170       H  0.99953713  0.62491701  0.67757198     0.13300
H1171       H  0.94237295  0.59685491  0.60886020     0.13100
H1172       H  0.97707810  0.61504084  0.57188363     0.12200
C1173       C  0.78574686  0.55081723  0.64685604     0.18500
C1174       C  0.76333349  0.55086481  0.65537937    -0.10600
C1175       C  0.74652138  0.55083113  0.63416708    -0.11500
C1176       C  0.75210549  0.55075378  0.60440770     0.20100
C1177       C  0.77473632  0.55115005  0.59590127    -0.13500
C1178       C  0.79153978  0.55118341  0.61710320    -0.11800
C1179       C  0.73417722  0.54925241  0.58258756     0.01000
C1180       C  0.71905687  0.54709832  0.56391892    -0.31800
C1181       C  0.80219099  0.54922568  0.66856324     0.02400
C1182       C  0.81529065  0.54681739  0.68681530    -0.33500
H1183       H  0.75866501  0.55050521  0.67835709     0.13500
H1184       H  0.72902677  0.55046218  0.64093458     0.13300
H1185       H  0.77917141  0.55102802  0.57292246     0.13100
H1186       H  0.80879124  0.55107040  0.61032066     0.12200
C1187       C  0.75497693  0.55363456  0.89687385     0.18500
C1188       C  0.74767695  0.55015519  0.86731816    -0.10600
C1189       C  0.76432681  0.55003639  0.84592162    -0.11500
C1190       C  0.78840361  0.55339373  0.85391573     0.20100
C1191       C  0.79579659  0.55704241  0.88345679    -0.13500
C1192       C  0.77913191  0.55716152  0.90487197    -0.11800
C1193       C  0.80512510  0.55239424  0.83187318     0.01000
C1194       C  0.81827431  0.55062213  0.81301638    -0.31800
C1195       C  0.73738708  0.55285510  0.91897377     0.02400
C1196       C  0.72225460  0.55128612  0.93746682    -0.33500
H1197       H  0.72903666  0.54731329  0.86084796     0.13500
H1198       H  0.75833520  0.54710671  0.82318323     0.13300
H1199       H  0.81430911  0.55956911  0.88994517     0.13100
H1200       H  0.78497856  0.55977637  0.92765314     0.12200
C1201       C  0.57407240  0.12515741  0.85529777     0.18500
C1202       C  0.55136181  0.12456727  0.84664712    -0.10600
C1203       C  0.53402932  0.12368718  0.86773229    -0.11500
C1204       C  0.53933556  0.12337768  0.89755370     0.20100
C1205       C  0.56202028  0.12391436  0.90619999    -0.13500
C1206       C  0.57935316  0.12479294  0.88511342    -0.11800
C1207       C  0.52138519  0.12217053  0.91927296     0.01000
C1208       C  0.50630528  0.12062069  0.93773058    -0.31800
C1209       C  0.59160106  0.12553373  0.83354617     0.02400
C1210       C  0.60531626  0.12479779  0.81475355    -0.33500
H1211       H  0.54702068  0.12468804  0.82363610     0.13500
H1212       H  0.51649702  0.12316779  0.86080519     0.13300
H1213       H  0.56625407  0.12357168  0.92920550     0.13100
H1214       H  0.59677826  0.12508907  0.89203161     0.12200
C1215       C  0.53818574  0.12711109  0.60617926     0.18500
C1216       C  0.53219343  0.12642805  0.63594278    -0.10600
C1217       C  0.54821523  0.12495133  0.65719222    -0.11500
C1218       C  0.57025966  0.12412904  0.64874381     0.20100
C1219       C  0.57631642  0.12498821  0.61899878    -0.13500
C1220       C  0.56031735  0.12646816  0.59777585    -0.11800
C1221       C  0.58646111  0.12200611  0.67049038     0.01000
C1222       C  0.59988728  0.11989991  0.68863273    -0.31800
C1223       C  0.52123075  0.12749443  0.58414458     0.02400
C1224       C  0.50697977  0.12652898  0.56493940    -0.33500
H1225       H  0.51506158  0.12678951  0.64267991     0.13500
H1226       H  0.54332577  0.12425336  0.68014126     0.13300
H1227       H  0.59327729  0.12431772  0.61221957     0.13100
H1228       H  0.56506227  0.12685970  0.57481876     0.12200
C1229       C  0.79003757  0.22472464  0.89543822     0.18500
C1230       C  0.76539261  0.20477084  0.90369335    -0.10600
C1231       C  0.74792609  0.18825261  0.88248371    -0.11500
C1232       C  0.75497754  0.19157007  0.85285396     0.20100
C1233       C  0.77976838  0.21125248  0.84464482    -0.13500
C1234       C  0.79723716  0.22777729  0.86585921    -0.11800
C1235       C  0.73655110  0.17537852  0.83082158     0.01000
C1236       C  0.72105270  0.16242935  0.81215047    -0.31800
C1237       C  0.80740424  0.24268573  0.91715231     0.02400
C1238       C  0.82090916  0.25805562  0.93567795    -0.33500
H1239       H  0.75954289  0.20223302  0.92646185     0.13500
H1240       H  0.72882817  0.17315130  0.88913567     0.13300
H1241       H  0.78545991  0.21405403  0.82181945     0.13100
H1242       H  0.81618283  0.24315168  0.85915433     0.12200
C1243       C  0.75000635  0.19585554  0.64499551     0.18500
C1244       C  0.74289429  0.19204302  0.61538382    -0.10600
C1245       C  0.76006041  0.20863940  0.59409732    -0.11500
C1246       C  0.78442804  0.22913678  0.60230493     0.20100
C1247       C  0.79159101  0.23287929  0.63190222    -0.13500
C1248       C  0.77442334  0.21627952  0.65319154    -0.11800
C1249       C  0.80177570  0.24664270  0.58043492     0.01000
C1250       C  0.81567862  0.26151078  0.56187570    -0.31800
C1251       C  0.73211525  0.17914569  0.66699790     0.02400
C1252       C  0.71712161  0.16566471  0.68570160    -0.33500
H1253       H  0.72405201  0.17636857  0.60878696     0.13500
H1254       H  0.75427434  0.20560414  0.57129069     0.13300
H1255       H  0.81033884  0.24870427  0.63852267     0.13100
H1256       H  0.78011354  0.21946168  0.67602554     0.12200
C1257       C  0.85228245  0.40430224  0.89472991     0.18500
C1258       C  0.84891451  0.39753743  0.86500683    -0.10600
C1259       C  0.84761884  0.41408509  0.84431719    -0.11500
C1260       C  0.84967225  0.43749013  0.85321558     0.20100
C1261       C  0.85275468  0.44413623  0.88297859    -0.13500
C1262       C  0.85404520  0.42757794  0.90367867    -0.11800
C1263       C  0.84978533  0.45511825  0.83163941     0.01000
C1264       C  0.85124121  0.46999627  0.81288219    -0.31800
C1265       C  0.85451659  0.38770270  0.91595262     0.02400
C1266       C  0.85693327  0.37444682  0.93414549    -0.33500
H1267       H  0.84757090  0.37963386  0.85780401     0.13500
H1268       H  0.84535456  0.40879330  0.82135539     0.13300
H1269       H  0.85448805  0.46222689  0.89011914     0.13100
H1270       H  0.85669485  0.43304674  0.92659314     0.12200
C1271       C  0.85663865  0.40777426  0.60064344     0.23300
C1272       C  0.84616195  0.39755336  0.62818967    -0.10600
C1273       C  0.84534429  0.41361624  0.64995339    -0.11500
C1274       C  0.85497824  0.43996429  0.64425429     0.20100
C1275       C  0.86528231  0.45012922  0.61664020    -0.13500
C1276       C  0.86610027  0.43407705  0.59489125    -0.11800
C1277       C  0.85509431  0.45677867  0.66693493     0.01000
C1278       C  0.85643712  0.47146582  0.68590109    -0.31800
C1279       C  0.85829585  0.39149011  0.57852874     0.02400
C1280       C  0.86045247  0.37832879  0.55999114    -0.33500
H1281       H  0.83885893  0.37726554  0.63291131     0.13500
H1282       H  0.83743752  0.40556390  0.67126310     0.13300
H1283       H  0.87289176  0.47048777  0.61202346     0.13100
H1284       H  0.87431294  0.44221303  0.57370550     0.12200
C1285       C  0.62674017  0.00960688  0.85237493     0.18500
C1286       C  0.64043996  0.01328360  0.87850529    -0.10600
C1287       C  0.63096192  0.99368765  0.89967657    -0.11500
C1288       C  0.60777814  0.97037247  0.89475152     0.20100
C1289       C  0.59429669  0.96660742  0.86845913    -0.13500
C1290       C  0.60375596  0.98616291  0.84733031    -0.11800
C1291       C  0.59695188  0.95086359  0.91719985     0.01000
C1292       C  0.58624066  0.93481911  0.93605037    -0.31800
C1293       C  0.63548056  0.03010821  0.83115347     0.02400
C1294       C  0.64080228  0.04657390  0.81287308    -0.33500
H1295       H  0.65817066  0.03138761  0.88268547     0.13500
H1296       H  0.64144475  0.99686914  0.92002767     0.13300
H1297       H  0.57626088  0.94873965  0.86451125     0.13100
H1298       H  0.59294411  0.98316533  0.82726671     0.12200
C1299       C  0.62753512  0.01018436  0.64664277     0.18500
C1300       C  0.63559379  0.01596268  0.61745045    -0.10600
C1301       C  0.62592133  0.99624047  0.59638286    -0.11500
C1302       C  0.60813948  0.97063078  0.60438473     0.20100
C1303       C  0.60023840  0.96481082  0.63363188    -0.13500
C1304       C  0.60991615  0.98453538  0.65470394    -0.11800
C1305       C  0.59717856  0.95061795  0.58235579     0.01000
C1306       C  0.58714590  0.93452109  0.56331861    -0.31800
C1307       C  0.63653313  0.03062402  0.66811778     0.02400
C1308       C  0.64258319  0.04719264  0.68654437    -0.33500
H1309       H  0.64908625  0.03572582  0.61092232     0.13500
H1310       H  0.63204383  0.00100730  0.57380827     0.13300
H1311       H  0.58637557  0.94512456  0.64005760     0.13100
H1312       H  0.60342919  0.97984861  0.67717984     0.12200
C1313       C  0.43821665  0.85305751  0.89536665     0.18500
C1314       C  0.44359990  0.85364240  0.86544046    -0.10600
C1315       C  0.42642922  0.85360460  0.84468511    -0.11500
C1316       C  0.40379987  0.85298546  0.85374845     0.20100
C1317       C  0.39835583  0.85229197  0.88367625    -0.13500
C1318       C  0.41552972  0.85232583  0.90443787    -0.11800
C1319       C  0.38660075  0.85376118  0.83231453     0.01000
C1320       C  0.37316501  0.85535459  0.81376366    -0.31800
C1321       C  0.45625757  0.85393136  0.91678584     0.02400
C1322       C  0.47139241  0.85559289  0.93525980    -0.33500
H1323       H  0.46113180  0.85433290  0.85817866     0.13500
H1324       H  0.43088873  0.85426263  0.82160026     0.13300
H1325       H  0.38098193  0.85192867  0.89093956     0.13100
H1326       H  0.41123292  0.85199123  0.92753138     0.12200
C1327       C  0.44093752  0.86003514  0.60307627     0.18500
C1328       C  0.44521740  0.85702931  0.63260944    -0.10600
C1329       C  0.42872414  0.85716872  0.65420678    -0.11500
C1330       C  0.40787353  0.86031614  0.64637948     0.20100
C1331       C  0.40356999  0.86325281  0.61684262    -0.13500
C1332       C  0.42005232  0.86311185  0.59525813    -0.11800
C1333       C  0.39119833  0.86102284  0.66863591     0.01000
C1334       C  0.37764346  0.86228015  0.68732210    -0.31800
C1335       C  0.45824043  0.86054975  0.58084230     0.02400
C1336       C  0.47292836  0.86183428  0.56197713    -0.33500
H1337       H  0.46135532  0.85473658  0.63893550     0.13500
H1338       H  0.43230443  0.85497028  0.67697991     0.13300
H1339       H  0.38757878  0.86579049  0.61052652     0.13100
H1340       H  0.41660609  0.86555314  0.57251195     0.12200
C1341       C  0.12468783  0.53972657  0.85545586     0.18500
C1342       C  0.10844862  0.52980864  0.87989527    -0.10600
C1343       C  0.10805975  0.54665938  0.90088392    -0.11500
C1344       C  0.12389506  0.57353538  0.89756158     0.20100
C1345       C  0.14022425  0.58347091  0.87318126    -0.13500
C1346       C  0.14061281  0.56660431  0.85217208    -0.11800
C1347       C  0.12316140  0.59079369  0.91908954     0.01000
C1348       C  0.12179216  0.60447515  0.93758772    -0.31800
C1349       C  0.12445226  0.52233126  0.83343368     0.02400
C1350       C  0.12333198  0.50758885  0.81465230    -0.33500
H1351       H  0.09598356  0.50907977  0.88262312     0.13500
H1352       H  0.09533468  0.53874397  0.91961991     0.13300
H1353       H  0.15253438  0.60420679  0.87035529     0.13100
H1354       H  0.15318206  0.57450608  0.83331369     0.12200
C1355       C  0.12086192  0.57342843  0.60511028     0.18500
C1356       C  0.09846755  0.54962563  0.61073033    -0.10600
C1357       C  0.09875567  0.53290060  0.63187438    -0.11500
C1358       C  0.12144596  0.53986587  0.64753155     0.20100
C1359       C  0.14388882  0.56366542  0.64191408    -0.13500
C1360       C  0.14360126  0.58042263  0.62072396    -0.11800
C1361       C  0.12142871  0.52264966  0.66955646     0.01000
C1362       C  0.12016304  0.50772310  0.68811596    -0.31800
C1363       C  0.12032481  0.59045960  0.58322986     0.02400
C1364       C  0.11862895  0.60369644  0.56447295    -0.33500
H1365       H  0.08078594  0.54401082  0.59878203     0.13500
H1366       H  0.08128123  0.51457542  0.63606310     0.13300
H1367       H  0.16153326  0.56926852  0.65392797     0.13100
H1368       H  0.16103838  0.59877659  0.61654328     0.12200
C1369       C  0.01081870  0.36956122  0.85329497     0.18500
C1370       C  0.01734012  0.37805611  0.88228511    -0.10600
C1371       C  0.99819497  0.36890576  0.90385025    -0.11500
C1372       C  0.97243401  0.35122362  0.89652992     0.20100
C1373       C  0.96598262  0.34225680  0.86766259    -0.13500
C1374       C  0.98515148  0.35141802  0.84607099    -0.11800
C1375       C  0.95254227  0.34357722  0.91830001     0.01000
C1376       C  0.93637977  0.33887839  0.93673961    -0.31800
C1377       C  0.03011983  0.38089979  0.83073741     0.02400
C1378       C  0.04607805  0.39210212  0.81197143    -0.33500
H1379       H  0.03709047  0.39220932  0.88806671     0.13500
H1380       H  0.00337466  0.37606472  0.92607144     0.13300
H1381       H  0.94610235  0.32868093  0.86173734     0.13100
H1382       H  0.97987348  0.34485122  0.82367393     0.12200
C1383       C  0.01163893  0.37013302  0.64445894     0.18500
C1384       C  0.01659678  0.37971637  0.61575296    -0.10600
C1385       C  0.99660742  0.37019115  0.59505713    -0.11500
C1386       C  0.97146153  0.35101751  0.60286766     0.20100
C1387       C  0.96654574  0.34117735  0.63148080    -0.13500
C1388       C  0.98655978  0.35070990  0.65219939    -0.11800
C1389       C  0.95071210  0.34225646  0.58173430     0.01000
C1390       C  0.93419222  0.33654441  0.56329100    -0.31800
C1391       C  0.03190887  0.38119460  0.66627716     0.02400
C1392       C  0.04822658  0.39160226  0.68507053    -0.33500
H1393       H  0.03581714  0.39482875  0.60948823     0.13500
H1394       H  0.00068788  0.37804804  0.57306846     0.13300
H1395       H  0.94721043  0.32642982  0.63787740     0.13100
H1396       H  0.98239512  0.34322850  0.67434672     0.12200
C1397       C  0.36944004  0.35105098  0.85436981     0.18500
C1398       C  0.37690140  0.35235274  0.88365558    -0.10600
C1399       C  0.36722377  0.36196237  0.90495311    -0.11500
C1400       C  0.35005647  0.37031417  0.89704849     0.20100
C1401       C  0.34230220  0.36870110  0.86781303    -0.13500
C1402       C  0.35198996  0.35907186  0.84648464    -0.11800
C1403       C  0.34171405  0.38190948  0.91873243     0.01000
C1404       C  0.33681879  0.39301991  0.93736862    -0.31800
C1405       C  0.38090039  0.34294926  0.83227575     0.02400
C1406       C  0.39195778  0.33789223  0.81376792    -0.33500
H1407       H  0.39055010  0.34640183  0.88991962     0.13500
H1408       H  0.37349459  0.36333668  0.92747084     0.13300
H1409       H  0.32919418  0.37531131  0.86145549     0.13100
H1410       H  0.34627409  0.35833298  0.82383470     0.12200
C1411       C  0.34723025  0.36986033  0.60586023     0.18500
C1412       C  0.35601740  0.38252928  0.63284208    -0.10600
C1413       C  0.36588378  0.37286483  0.65393060    -0.11500
C1414       C  0.36707097  0.35045655  0.64822499     0.20100
C1415       C  0.35787597  0.33750261  0.62143696    -0.13500
C1416       C  0.34799186  0.34718237  0.60031404    -0.11800
C1417       C  0.37867926  0.34153532  0.66946120     0.01000
C1418       C  0.38951261  0.33584895  0.68777005    -0.31800
C1419       C  0.33887588  0.38100473  0.58339279     0.02400
C1420       C  0.33367878  0.39161992  0.56430568    -0.33500
H1421       H  0.35567728  0.40013540  0.63737205     0.13500
H1422       H  0.37298671  0.38311468  0.67449973     0.13300
H1423       H  0.35873793  0.32020858  0.61670049     0.13100
H1424       H  0.34138857  0.33726285  0.57949513     0.12200
C1425       C  0.19198014  0.42767625  0.85417938     0.18500
C1426       C  0.18633782  0.42734258  0.88402704    -0.10600
C1427       C  0.20330972  0.42752126  0.90524229    -0.11500
C1428       C  0.22603804  0.42803224  0.89676154     0.20100
C1429       C  0.23156139  0.42814519  0.86692459    -0.13500
C1430       C  0.21459823  0.42796469  0.84572163    -0.11800
C1431       C  0.24399721  0.42915446  0.91860840     0.01000
C1432       C  0.25926021  0.43092589  0.93706162    -0.31800
C1433       C  0.17505818  0.42851816  0.83223486     0.02400
C1434       C  0.16175548  0.43015554  0.81343825    -0.33500
H1435       H  0.16897942  0.42720205  0.89088738     0.13500
H1436       H  0.19883593  0.42750832  0.92822905     0.13300
H1437       H  0.24908258  0.42861879  0.86005857     0.13100
H1438       H  0.21924791  0.42830917  0.82274116     0.12200
C1439       C  0.23022650  0.43749138  0.60241435     0.18500
C1440       C  0.21247453  0.41420649  0.61605536    -0.10600
C1441       C  0.19567054  0.41403369  0.63739917    -0.11500
C1442       C  0.19656076  0.43714111  0.64513960     0.20100
C1443       C  0.21418891  0.46038945  0.63133736    -0.13500
C1444       C  0.23098420  0.46056244  0.61000686    -0.11800
C1445       C  0.17972377  0.43714742  0.66753901     0.01000
C1446       C  0.16619828  0.43791011  0.68654539    -0.31800
C1447       C  0.24778892  0.43780790  0.58078363     0.02400
C1448       C  0.26268519  0.43865815  0.56252390    -0.33500
H1449       H  0.21172110  0.39626026  0.61030501     0.13500
H1450       H  0.18211404  0.39595720  0.64795725     0.13300
H1451       H  0.21503807  0.47836506  0.63717688     0.13100
H1452       H  0.24462333  0.47866647  0.59955678     0.12200
C1453       C  0.61069863  0.62891155  0.85153420     0.18500
C1454       C  0.61288212  0.63726040  0.88061292    -0.10600
C1455       C  0.62232452  0.62751857  0.90207769    -0.11500
C1456       C  0.62961518  0.60940071  0.89452493     0.20100
C1457       C  0.62789249  0.60143494  0.86535117    -0.13500
C1458       C  0.61845592  0.61117166  0.84389845    -0.11800
C1459       C  0.63738151  0.59782685  0.91689496     0.01000
C1460       C  0.64228473  0.58687179  0.93572289    -0.31800
C1461       C  0.59914394  0.63733394  0.82985660     0.02400
C1462       C  0.58815650  0.64276691  0.81160515    -0.33500
H1463       H  0.60680562  0.65086235  0.88677529     0.13500
H1464       H  0.62344004  0.63369218  0.92460900     0.13300
H1465       H  0.63333495  0.58732073  0.85931087     0.13100
H1466       H  0.61671366  0.60447896  0.82150317     0.12200
C1467       C  0.61212829  0.63101302  0.64684911     0.18500
C1468       C  0.60941661  0.60651998  0.65091337    -0.10600
C1469       C  0.61891651  0.59637199  0.62993180    -0.11500
C1470       C  0.63123837  0.61064466  0.60471637     0.20100
C1471       C  0.63430833  0.63530981  0.60084513    -0.13500
C1472       C  0.62479398  0.64546861  0.62184983    -0.11800
C1473       C  0.63959826  0.59944796  0.58229046     0.01000
C1474       C  0.64510511  0.58911170  0.56314548    -0.31800
C1475       C  0.60105445  0.64071046  0.66786685     0.02400
C1476       C  0.59050783  0.64692579  0.68599958    -0.33500
H1477       H  0.59962034  0.59510620  0.67009316     0.13500
H1478       H  0.61630650  0.57724922  0.63315742     0.13300
H1479       H  0.64369571  0.64650699  0.58140385     0.13100
H1480       H  0.62697756  0.66438936  0.61839240     0.12200
C1481       C  0.40924994  0.54059342  0.60309744     0.18500
C1482       C  0.42640294  0.53522102  0.61801833    -0.10600
C1483       C  0.44300196  0.55239382  0.63929060    -0.11500
C1484       C  0.44256655  0.57505666  0.64580399     0.20100
C1485       C  0.42536831  0.58045243  0.63095228    -0.13500
C1486       C  0.40873057  0.56323822  0.60962172    -0.11800
C1487       C  0.45978942  0.59252678  0.66781015     0.01000
C1488       C  0.47471166  0.60594209  0.68662552    -0.31800
C1489       C  0.39255786  0.52298331  0.58085162     0.02400
C1490       C  0.37929508  0.50791902  0.56204883    -0.33500
H1491       H  0.42700331  0.51780290  0.61313712     0.13500
H1492       H  0.45620183  0.54801632  0.65064165     0.13300
H1493       H  0.42484988  0.59791248  0.63582114     0.13100
H1494       H  0.39556351  0.56760539  0.59818629     0.12200
C1495       C  0.40624690  0.54094938  0.89450633     0.18500
C1496       C  0.40854427  0.53204022  0.86691305    -0.10600
C1497       C  0.42557876  0.54951441  0.84612165    -0.11500
C1498       C  0.44042474  0.57599478  0.85279480     0.20100
C1499       C  0.43795726  0.58493752  0.88028987    -0.13500
C1500       C  0.42091620  0.56746020  0.90108365    -0.11800
C1501       C  0.45854959  0.59378219  0.83163304     0.01000
C1502       C  0.47381367  0.60773864  0.81338889    -0.31800
C1503       C  0.38941290  0.52287457  0.91633607     0.02400
C1504       C  0.37603256  0.50796165  0.93518073    -0.33500
H1505       H  0.39736431  0.51159627  0.86157973     0.13500
H1506       H  0.42734419  0.54235579  0.82495538     0.13300
H1507       H  0.44934885  0.60534278  0.88573199     0.13100
H1508       H  0.41935506  0.57457669  0.92236322     0.12200
C1509       C  0.54722267  0.75375660  0.64709156     0.18500
C1510       C  0.52825444  0.74383845  0.62518535    -0.10600
C1511       C  0.52754643  0.76040673  0.60413139    -0.11500
C1512       C  0.54578675  0.78696520  0.60490347     0.20100
C1513       C  0.56471043  0.79691745  0.62686352    -0.13500
C1514       C  0.56541777  0.78033336  0.64793909    -0.11800
C1515       C  0.54506925  0.80386336  0.58303560     0.01000
C1516       C  0.54378366  0.81723151  0.56417485    -0.31800
C1517       C  0.54770920  0.73667203  0.66888234     0.02400
C1518       C  0.54706964  0.72193827  0.68728175    -0.33500
H1519       H  0.51403087  0.72333533  0.62440297     0.13500
H1520       H  0.51281591  0.75252274  0.58725587     0.13300
H1521       H  0.57888460  0.81743091  0.62766728     0.13100
H1522       H  0.58009956  0.78820833  0.66486391     0.12200
C1523       C  0.55656397  0.75605954  0.85532907     0.18500
C1524       C  0.56848763  0.78280341  0.85023107    -0.10600
C1525       C  0.56769744  0.79920560  0.87163132    -0.11500
C1526       C  0.55495756  0.78897287  0.89826979     0.20100
C1527       C  0.54333998  0.76228420  0.90349931    -0.13500
C1528       C  0.54412994  0.74589732  0.88211832    -0.11800
C1529       C  0.55313240  0.80562628  0.91990987     0.01000
C1530       C  0.55073985  0.81891739  0.93817311    -0.31800
C1531       C  0.55613097  0.73890201  0.83273634     0.02400
C1532       C  0.55446085  0.72411499  0.81362989    -0.33500
H1533       H  0.57809114  0.79091972  0.82959421     0.13500
H1534       H  0.57673121  0.81978025  0.86727057     0.13300
H1535       H  0.53339970  0.75409853  0.92395906     0.13100
H1536       H  0.53475802  0.72527088  0.88632684     0.12200
loop_ 
_geom_bond_atom_site_label_1 
_geom_bond_atom_site_label_2 
_geom_bond_distance 
_geom_bond_site_symmetry_2 
_ccdc_geom_bond_type 
O1          Cr19   1.974       .  S
O1            C9   1.258       .  A
O2          Cr19   2.005       .  S
O2            C3   1.262       .  A
C3            O4   1.260       .  A
C3          C708   1.440       .  S
O4          Cr20   1.988       .  S
O5          Cr20   2.012       .  S
O5            C6   1.265       .  A
C6            O7   1.257       .  A
C6          C750   1.433       .  S
O7          Cr21   1.969       .  S
O8          Cr21   2.014       .  S
O8            C9   1.265       .  A
C9          C720   1.435       .  S
O10         Cr19   2.009       .  S
O10          C18   1.263       .  A
O11         Cr19   1.970       .  S
O11          C12   1.258       .  A
C12          O13   1.266       .  A
C12         C694   1.433       .  S
O13         Cr20   2.014       .  S
O14         Cr20   1.984       .  S
O14          C15   1.260       .  A
C15          O16   1.264       .  A
C15         C764   1.441       .  S
O16         Cr21   2.009       .  S
O17         Cr21   1.980       .  S
O17          C18   1.258       .  A
C18         C734   1.437       .  S
Cr19         O22   1.773       .  S
Cr20         O22   1.777       .  S
Cr21         O22   1.775       .  S
O23        Cr809   1.974   1_554  S
O23          C31   1.258       .  A
O24        Cr809   2.008   1_554  S
O24          C25   1.263       .  A
C25          O26   1.259       .  A
C25         C652   1.440       .  S
O26        Cr810   1.985       .  S
O27        Cr810   2.009       .  S
O27          C28   1.265       .  A
C28          O29   1.258       .  A
C28         C680   1.432       .  S
O29        Cr811   1.972   1_554  S
O30        Cr811   2.013   1_554  S
O30          C31   1.265       .  A
C31         C722   1.435       .  S
O32         Cr41   2.011       .  S
O32          C40   1.264       .  A
O33         Cr41   1.968       .  S
O33          C34   1.257       .  A
C34          O35   1.265       .  A
C34         C636   1.431       .  S
O35         Cr42   2.011       .  S
O36         Cr42   1.982       .  S
O36          C37   1.259       .  A
C37          O38   1.264       .  A
C37         C664   1.440       .  S
O38         Cr43   2.009       .  S
O39         Cr43   1.979       .  S
O39          C40   1.258       .  A
C40         C736   1.437       .  S
Cr41        O791   1.974       .  S
Cr41        O792   2.009       .  S
Cr41         O44   1.773       .  S
Cr42        O794   1.985       .  S
Cr42        O795   2.009       .  S
Cr42         O44   1.776       .  S
Cr43        O797   1.971       .  S
Cr43        O798   2.013       .  S
Cr43         O44   1.774       .  S
O45         Cr63   1.973       .  S
O45          C53   1.258       .  A
O46         Cr63   2.007       .  S
O46          C47   1.263       .  A
C47          O48   1.260       .  A
C47         C624   1.441       .  S
O48         Cr64   1.988       .  S
O49         Cr64   2.010       .  S
O49          C50   1.265       .  A
C50          O51   1.257       .  A
C50         C678   1.433       .  S
O51         Cr65   1.971       .  S
O52         Cr65   2.014       .  S
O52          C53   1.265       .  A
C53         C594   1.435       .  S
O54         Cr63   2.009       .  S
O54          C62   1.263       .  A
O55         Cr63   1.970       .  S
O55          C56   1.258       .  A
C56          O57   1.266       .  A
C56         C610   1.433       .  S
O57         Cr64   2.013       .  S
O58         Cr64   1.983       .  S
O58          C59   1.260       .  A
C59          O60   1.265       .  A
C59         C666   1.440       .  S
O60         Cr65   2.010       .  S
O61         Cr65   1.979       .  S
O61          C62   1.258       .  A
C62         C582   1.437       .  S
Cr63         O66   1.773       .  S
Cr64         O66   1.777       .  S
Cr65         O66   1.775       .  S
O67        Cr853   1.972   1_554  S
O67          C75   1.258       .  A
O68        Cr853   2.005   1_554  S
O68          C69   1.262       .  A
C69          O70   1.259       .  A
C69         C538   1.437       .  S
O70        Cr854   1.983       .  S
O71        Cr854   2.010       .  S
O71          C72   1.265       .  A
C72          O73   1.257       .  A
C72         C748   1.433       .  S
O73        Cr855   1.971   1_554  S
O74        Cr855   2.016   1_554  S
O74          C75   1.266       .  A
C75         C568   1.436       .  S
O76         Cr85   2.006       .  S
O76          C84   1.263       .  A
O77         Cr85   1.969       .  S
O77          C78   1.258       .  A
C78          O79   1.266       .  A
C78         C524   1.433       .  S
O79         Cr86   2.015       .  S
O80         Cr86   1.981       .  S
O80          C81   1.259       .  A
C81          O82   1.265       .  A
C81         C762   1.441       .  S
O82         Cr87   2.013       .  S
O83         Cr87   1.979       .  S
O83          C84   1.258       .  A
C84         C554   1.435       .  S
Cr85        O835   1.972       .  S
Cr85        O836   2.005       .  S
Cr85         O88   1.772       .  S
Cr86        O838   1.983       .  S
Cr86        O839   2.009       .  S
Cr86         O88   1.776       .  S
Cr87        O841   1.971       .  S
Cr87        O842   2.016       .  S
Cr87         O88   1.774       .  S
O89        Cr875   1.975   1_554  S
O89          C97   1.258       .  A
O90        Cr875   2.009   1_554  S
O90          C91   1.264       .  A
C91          O92   1.260       .  A
C91         C622   1.441       .  S
O92        Cr876   1.986   1_554  S
O93        Cr876   2.012   1_554  S
O93          C94   1.265       .  A
C94          O95   1.258       .  A
C94         C482   1.436       .  S
O95        Cr877   1.973   1_554  S
O96        Cr877   2.013   1_554  S
O96          C97   1.265       .  A
C97         C512   1.436       .  S
O98        Cr107   2.011       .  S
O98         C106   1.264       .  A
O99        Cr107   1.972       .  S
O99         C100   1.258       .  A
C100        O101   1.265       .  A
C100        C608   1.434       .  S
O101       Cr108   2.013       .  S
O102       Cr108   1.983       .  S
O102        C103   1.260       .  A
C103        O104   1.264       .  A
C103        C470   1.440       .  S
O104       Cr109   2.010       .  S
O105       Cr109   1.980       .  S
O105        C106   1.258       .  A
C106        C498   1.438       .  S
Cr107       O857   1.974       .  S
Cr107       O858   2.009       .  S
Cr107       O110   1.774       .  S
Cr108       O860   1.987       .  S
Cr108       O861   2.012       .  S
Cr108       O110   1.777       .  S
Cr109       O863   1.973       .  S
Cr109       O864   2.013       .  S
Cr109       O110   1.775       .  S
O111       Cr129   1.973       .  S
O111        C119   1.258       .  A
O112       Cr129   2.004       .  S
O112        C113   1.262       .  A
C113        O114   1.259       .  A
C113        C540   1.436       .  S
O114       Cr130   1.983       .  S
O115       Cr130   2.012       .  S
O115        C116   1.265       .  A
C116        O117   1.258       .  A
C116        C484   1.436       .  S
O117       Cr131   1.975       .  S
O118       Cr131   2.013       .  S
O118        C119   1.266       .  A
C119        C454   1.434       .  S
O120       Cr129   2.003       .  S
O120        C128   1.262       .  A
O121       Cr129   1.971       .  S
O121        C122   1.258       .  A
C122        O123   1.266       .  A
C122        C526   1.433       .  S
O123       Cr130   2.014       .  S
O124       Cr130   1.980       .  S
O124        C125   1.259       .  A
C125        O126   1.265       .  A
C125        C468   1.440       .  S
O126       Cr131   2.012       .  S
O127       Cr131   1.980       .  S
O127        C128   1.258       .  A
C128        C442   1.434       .  S
Cr129       O132   1.773       .  S
Cr130       O132   1.775       .  S
Cr131       O132   1.774       .  S
O133       Cr151   1.972       .  S
O133        C141   1.257       .  A
O134       Cr151   2.009       .  S
O134        C135   1.264       .  A
C135        O136   1.260       .  A
C135        C398   1.440       .  S
O136       Cr152   1.985       .  S
O137       Cr152   2.006       .  S
O137        C138   1.264       .  A
C138        O139   1.258       .  A
C138        C414   1.431       .  S
O139       Cr153   1.973       .  S
O140       Cr153   2.016       .  S
O140        C141   1.266       .  A
C141        C510   1.436       .  S
O142       Cr151   2.008       .  S
O142        C150   1.264       .  A
O143       Cr151   1.970       .  S
O143        C144   1.257       .  A
C144        O145   1.264       .  A
C144        C384   1.431       .  S
O145       Cr152   2.009       .  S
O146       Cr152   1.982       .  S
O146        C147   1.260       .  A
C147        O148   1.265       .  A
C147        C426   1.439       .  S
O148       Cr153   2.010       .  S
O149       Cr153   1.979       .  S
O149        C150   1.258       .  A
C150        C496   1.437       .  S
Cr151       O154   1.772       .  S
Cr152       O154   1.776       .  S
Cr153       O154   1.774       .  S
O155       Cr941   2.006       .  S
O155        C163   1.263       .  A
O156       Cr941   1.971       .  S
O156        C157   1.257       .  A
C157        O158   1.267       .  A
C157        C342   1.438       .  S
O158       Cr942   2.020   1_554  S
O159       Cr942   1.977   1_554  S
O159        C160   1.258       .  A
C160        O161   1.264       .  A
C160        C358   1.436       .  S
O161       Cr943   2.009   1_554  S
O162       Cr943   1.979   1_554  S
O162        C163   1.258       .  A
C163        C456   1.434       .  S
O164       Cr173   1.972       .  S
O164        C172   1.257       .  A
O165       Cr173   2.004       .  S
O165        C166   1.263       .  A
C166        O167   1.258       .  A
C166        C328   1.433       .  S
O167       Cr174   1.979       .  S
O168       Cr174   2.017       .  S
O168        C169   1.267       .  A
C169        O170   1.259       .  A
C169        C370   1.440       .  S
O170       Cr175   1.976       .  S
O171       Cr175   2.014       .  S
O171        C172   1.265       .  A
C172        C440   1.434       .  S
Cr173       O923   2.006       .  S
Cr173       O924   1.971       .  S
Cr173       O176   1.772       .  S
Cr174       O926   2.021       .  S
Cr174       O927   1.977       .  S
Cr174       O176   1.774       .  S
Cr175       O929   2.008       .  S
Cr175       O930   1.979       .  S
Cr175       O176   1.774       .  S
O177       Cr963   1.970   1_554  S
O177        C185   1.257       .  A
O178       Cr963   2.007   1_554  S
O178        C179   1.263       .  A
C179        O180   1.259       .  A
C179        C706   1.440       .  S
O180       Cr964   1.986   1_554  S
O181       Cr964   2.007   1_554  S
O181        C182   1.264       .  A
C182        O183   1.257       .  A
C182        C412   1.430       .  S
O183       Cr965   1.971   1_554  S
O184       Cr965   2.011   1_554  S
O184        C185   1.264       .  A
C185        C314   1.431       .  S
O186       Cr195   2.008       .  S
O186        C194   1.264       .  A
O187       Cr195   1.970       .  S
O187        C188   1.258       .  A
C188        O189   1.265       .  A
C188        C692   1.432       .  S
O189       Cr196   2.011       .  S
O190       Cr196   1.982       .  S
O190        C191   1.260       .  A
C191        O192   1.265       .  A
C191        C428   1.439       .  S
O192       Cr197   2.010       .  S
O193       Cr197   1.978       .  S
O193        C194   1.258       .  A
C194        C300   1.435       .  S
Cr195       O945   1.969       .  S
Cr195       O946   2.008       .  S
Cr195       O198   1.772       .  S
Cr196       O948   1.985       .  S
Cr196       O949   2.006       .  S
Cr196       O198   1.775       .  S
Cr197       O951   1.971       .  S
Cr197       O952   2.011       .  S
Cr197       O198   1.774       .  S
O199       Cr217   1.970       .  S
O199        C207   1.257       .  A
O200       Cr217   2.008       .  S
O200        C201   1.264       .  A
C201        O202   1.260       .  A
C201        C650   1.440       .  S
O202       Cr218   1.985       .  S
O203       Cr218   2.010       .  S
O203        C204   1.265       .  A
C204        O205   1.259       .  A
C204        C356   1.436       .  S
O205       Cr219   1.976       .  S
O206       Cr219   2.010       .  S
O206        C207   1.265       .  A
C207        C316   1.431       .  S
O208       Cr217   2.010       .  S
O208        C216   1.264       .  A
O209       Cr217   1.968       .  S
O209        C210   1.257       .  A
C210        O211   1.265       .  A
C210        C638   1.430       .  S
O211       Cr218   2.011       .  S
O212       Cr218   1.983       .  S
O212        C213   1.260       .  A
C213        O214   1.264       .  A
C213        C372   1.439       .  S
O214       Cr219   2.008       .  S
O215       Cr219   1.978       .  S
O215        C216   1.258       .  A
C216        C302   1.436       .  S
Cr217       O220   1.773       .  S
Cr218       O220   1.775       .  S
Cr219       O220   1.774       .  S
O221      Cr1007   1.973       .  S
O221        C229   1.258       .  A
O222      Cr1007   2.005       .  S
O222        C223   1.263       .  A
C223        O224   1.260       .  A
C223        C400   1.440       .  S
O224      Cr1008   1.987       .  S
O225      Cr1008   2.013       .  S
O225        C226   1.266       .  A
C226        O227   1.258       .  A
C226        C286   1.436       .  S
O227      Cr1009   1.974   1_554  S
O228      Cr1009   2.013   1_554  S
O228        C229   1.265       .  A
C229        C596   1.435       .  S
O230       Cr239   2.009       .  S
O230        C238   1.264       .  A
O231       Cr239   1.969       .  S
O231        C232   1.258       .  A
C232        O233   1.265       .  A
C232        C386   1.431       .  S
O233       Cr240   2.012       .  S
O234       Cr240   1.985       .  S
O234        C235   1.260       .  A
C235        O236   1.263       .  A
C235        C272   1.440       .  S
O236       Cr241   2.007       .  S
O237       Cr241   1.980       .  S
O237        C238   1.258       .  A
C238        C580   1.437       .  S
Cr239       O989   1.974       .  S
Cr239       O990   2.005       .  S
Cr239       O242   1.774       .  S
Cr240       O992   1.987       .  S
Cr240       O993   2.012       .  S
Cr240       O242   1.776       .  S
Cr241       O995   1.974       .  S
Cr241       O996   2.012       .  S
Cr241       O242   1.775       .  S
O243       Cr261   1.974       .  S
O243        C251   1.258       .  A
O244       Cr261   2.005       .  S
O244        C245   1.263       .  A
C245        O246   1.260       .  A
C245        C344   1.438       .  S
O246       Cr262   1.985       .  S
O247       Cr262   2.012       .  S
O247        C248   1.265       .  A
C248        O249   1.258       .  A
C248        C288   1.436       .  S
O249       Cr263   1.975       .  S
O250       Cr263   2.014       .  S
O250        C251   1.265       .  A
C251        C566   1.436       .  S
O252       Cr261   2.006       .  S
O252        C260   1.263       .  A
O253       Cr261   1.972       .  S
O253        C254   1.258       .  A
C254        O255   1.265       .  A
C254        C330   1.434       .  S
O255       Cr262   2.013       .  S
O256       Cr262   1.983       .  S
O256        C257   1.260       .  A
C257        O258   1.264       .  A
C257        C274   1.440       .  S
O258       Cr263   2.010       .  S
O259       Cr263   1.979       .  S
O259        C260   1.258       .  A
C260        C552   1.435       .  S
Cr261       O264   1.773       .  S
Cr262       O264   1.776       .  S
Cr263       O264   1.774       .  S
C265        C273   1.445       .  S
C265        C266   1.402       .  A
C265        C270   1.403       .  A
C266        C267   1.401       .  A
C266        H275   1.083       .  S
C267        C268   1.402       .  A
C267        H276   1.084       .  S
C268        C271   1.445       .  S
C268        C269   1.402       .  A
C269        C270   1.401       .  A
C269        H277   1.083       .  S
C270        H278   1.084       .  S
C271        C272   1.209       .  T
C273        C274   1.209       .  T
C279        C287   1.441       .  S
C279        C280   1.401       .  A
C279        C284   1.402       .  A
C280        C281   1.399       .  A
C280        H289   1.083       .  S
C281        C282   1.402       .  A
C281        H290   1.084       .  S
C282        C285   1.441       .  S
C282        C283   1.402       .  A
C283        C284   1.400       .  A
C283        H291   1.083       .  S
C284        H292   1.083       .  S
C285        C286   1.207       .  T
C287        C288   1.207       .  T
C293        C301   1.441       .  S
C293        C294   1.402       .  A
C293        C298   1.401       .  A
C294        C295   1.400       .  A
C294        H303   1.083       .  S
C295        C296   1.401       .  A
C295        H304   1.083       .  S
C296        C299   1.440       .  S
C296        C297   1.401       .  A
C297        C298   1.398       .  A
C297        H305   1.084       .  S
C298        H306   1.083       .  S
C299        C300   1.206       .  T
C301        C302   1.207       .  T
C307        C315   1.436       .  S
C307        C308   1.401       .  A
C307        C312   1.401       .  A
C308        C309   1.398       .  A
C308        H317   1.083       .  S
C309        C310   1.401       .  A
C309        H318   1.084       .  S
C310        C313   1.436       .  S
C310        C311   1.401       .  A
C311        C312   1.398       .  A
C311        H319   1.083       .  S
C312        H320   1.084       .  S
C313        C314   1.204       .  T
C315        C316   1.204       .  T
C321        C329   1.439       .  S
C321        C322   1.402       .  A
C321        C326   1.401       .  A
C322        C323   1.399   1_565  A
C322        H331   1.084       .  S
C323        C324   1.401       .  A
C323        H332   1.083       .  S
C324        C327   1.438       .  S
C324        C325   1.401   1_545  A
C325        C326   1.398       .  A
C325        H333   1.084       .  S
C326        H334   1.083       .  S
C327        C328   1.205       .  T
C329        C330   1.205       .  T
C335        C343   1.443       .  S
C335        C336   1.402       .  A
C335        C340   1.402       .  A
C336        C337   1.399   1_565  A
C336        H345   1.083       .  S
C337        C338   1.401       .  A
C337        H346   1.083       .  S
C338        C341   1.443       .  S
C338        C339   1.402   1_545  A
C339        C340   1.401       .  A
C339        H347   1.083       .  S
C340        H348   1.083       .  S
C341        C342   1.208       .  T
C343        C344   1.208       .  T
C349        C357   1.441       .  S
C349        C350   1.401       .  A
C349        C354   1.402       .  A
C350        C351   1.399       .  A
C350        H359   1.083       .  S
C351        C352   1.402       .  A
C351        H360   1.084       .  S
C352        C355   1.441       .  S
C352        C353   1.401       .  A
C353        C354   1.400       .  A
C353        H361   1.083       .  S
C354        H362   1.084       .  S
C355        C356   1.206       .  T
C357        C358   1.206       .  T
C363        C371   1.444       .  S
C363        C364   1.402       .  A
C363        C368   1.402       .  A
C364        C365   1.401       .  A
C364        H373   1.083       .  S
C365        C366   1.402       .  A
C365        H374   1.083       .  S
C366        C369   1.444       .  S
C366        C367   1.402       .  A
C367        C368   1.400       .  A
C367        H375   1.084       .  S
C368        H376   1.083       .  S
C369        C370   1.209       .  T
C371        C372   1.208       .  T
C377        C385   1.436       .  S
C377        C378   1.401   1_455  A
C377        C382   1.400       .  A
C378        C379   1.399       .  A
C378        H387   1.083       .  S
C379        C380   1.401       .  A
C379        H388   1.083       .  S
C380        C383   1.436       .  S
C380        C381   1.400       .  A
C381        C382   1.396   1_655  A
C381        H389   1.084       .  S
C382        H390   1.084       .  S
C383        C384   1.203       .  T
C385        C386   1.204       .  T
C391        C399   1.445       .  S
C391        C392   1.402       .  A
C391        C396   1.403   1_455  A
C392        C393   1.401   1_455  A
C392        H401   1.083       .  S
C393        C394   1.402       .  A
C393        H402   1.083       .  S
C394        C397   1.445       .  S
C394        C395   1.402       .  A
C395        C396   1.402       .  A
C395        H403   1.083       .  S
C396        H404   1.083       .  S
C397        C398   1.209       .  T
C399        C400   1.209       .  T
C405        C413   1.436       .  S
C405        C406   1.401       .  A
C405        C410   1.400       .  A
C406        C407   1.398       .  A
C406        H415   1.084       .  S
C407        C408   1.401       .  A
C407        H416   1.083       .  S
C408        C411   1.435       .  S
C408        C409   1.401       .  A
C409        C410   1.397       .  A
C409        H417   1.084       .  S
C410        H418   1.083       .  S
C411        C412   1.203       .  T
C413        C414   1.203       .  T
C419        C427   1.444       .  S
C419        C420   1.402       .  A
C419        C424   1.403       .  A
C420        C421   1.400       .  A
C420        H429   1.083       .  S
C421        C422   1.402       .  A
C421        H430   1.084       .  S
C422        C425   1.444       .  S
C422        C423   1.402       .  A
C423        C424   1.401       .  A
C423        H431   1.083       .  S
C424        H432   1.083       .  S
C425        C426   1.208       .  T
C427        C428   1.208       .  T
C433        C441   1.439       .  S
C433        C434   1.401       .  A
C433        C438   1.401       .  A
C434        C435   1.399       .  A
C434        H443   1.084       .  S
C435        C436   1.401       .  A
C435        H444   1.083       .  S
C436        C439   1.439       .  S
C436        C437   1.401       .  A
C437        C438   1.399       .  A
C437        H445   1.084       .  S
C438        H446   1.083       .  S
C439        C440   1.206       .  T
C441        C442   1.205       .  T
C447        C455   1.439       .  S
C447        C448   1.401       .  A
C447        C452   1.401       .  A
C448        C449   1.400       .  A
C448        H457   1.083       .  S
C449        C450   1.402       .  A
C449        H458   1.084       .  S
C450        C453   1.439       .  S
C450        C451   1.401       .  A
C451        C452   1.398       .  A
C451        H459   1.083       .  S
C452        H460   1.084       .  S
C453        C454   1.206       .  T
C455        C456   1.205       .  T
C461        C469   1.445       .  S
C461        C462   1.402       .  A
C461        C466   1.402       .  A
C462        C463   1.401       .  A
C462        H471   1.083       .  S
C463        C464   1.402       .  A
C463        H472   1.083       .  S
C464        C467   1.444       .  S
C464        C465   1.402       .  A
C465        C466   1.401       .  A
C465        H473   1.083       .  S
C466        H474   1.083       .  S
C467        C468   1.209       .  T
C469        C470   1.209       .  T
C475        C483   1.441       .  S
C475        C476   1.401       .  A
C475        C480   1.402       .  A
C476        C477   1.399       .  A
C476        H485   1.083       .  S
C477        C478   1.402       .  A
C477        H486   1.084       .  S
C478        C481   1.441       .  S
C478        C479   1.401       .  A
C479        C480   1.400       .  A
C479        H487   1.083       .  S
C480        H488   1.084       .  S
C481        C482   1.207       .  T
C483        C484   1.207       .  T
C489        C497   1.443       .  S
C489        C490   1.401       .  A
C489        C494   1.402       .  A
C490        C491   1.400       .  A
C490        H499   1.083       .  S
C491        C492   1.402       .  A
C491        H500   1.084       .  S
C492        C495   1.442       .  S
C492        C493   1.402       .  A
C493        C494   1.400       .  A
C493        H501   1.083       .  S
C494        H502   1.084       .  S
C495        C496   1.207       .  T
C497        C498   1.208       .  T
C503        C511   1.441       .  S
C503        C504   1.402       .  A
C503        C508   1.401       .  A
C504        C505   1.400       .  A
C504        H513   1.083       .  S
C505        C506   1.402       .  A
C505        H514   1.083       .  S
C506        C509   1.441       .  S
C506        C507   1.401       .  A
C507        C508   1.399       .  A
C507        H515   1.083       .  S
C508        H516   1.084       .  S
C509        C510   1.207       .  T
C511        C512   1.207       .  T
C517        C525   1.438       .  S
C517        C518   1.401       .  A
C517        C522   1.401   1_545  A
C518        C519   1.400   1_545  A
C518        H527   1.083       .  S
C519        C520   1.402       .  A
C519        H528   1.083       .  S
C520        C523   1.438       .  S
C520        C521   1.400       .  A
C521        C522   1.397       .  A
C521        H529   1.084       .  S
C522        H530   1.084       .  S
C523        C524   1.205       .  T
C525        C526   1.205       .  T
C531        C539   1.441       .  S
C531        C532   1.401       .  A
C531        C536   1.402   1_545  A
C532        C533   1.400   1_545  A
C532        H541   1.083       .  S
C533        C534   1.402       .  A
C533        H542   1.083   1_565  S
C534        C537   1.442       .  S
C534        C535   1.401       .  A
C535        C536   1.400       .  A
C535        H543   1.083       .  S
C536        H544   1.084       .  S
C537        C538   1.207       .  T
C539        C540   1.207       .  T
C545        C553   1.440       .  S
C545        C546   1.401       .  A
C545        C550   1.402       .  A
C546        C547   1.399       .  A
C546        H555   1.083       .  S
C547        C548   1.401       .  A
C547        H556   1.084       .  S
C548        C551   1.440       .  S
C548        C549   1.401       .  A
C549        C550   1.399       .  A
C549        H557   1.083       .  S
C550        H558   1.084       .  S
C551        C552   1.206       .  T
C553        C554   1.206       .  T
C559        C567   1.441       .  S
C559        C560   1.402       .  A
C559        C564   1.401       .  A
C560        C561   1.400       .  A
C560        H569   1.083       .  S
C561        C562   1.402       .  A
C561        H570   1.084       .  S
C562        C565   1.441       .  S
C562        C563   1.401       .  A
C563        C564   1.399       .  A
C563        H571   1.083       .  S
C564        H572   1.084       .  S
C565        C566   1.207       .  T
C567        C568   1.207       .  T
C573        C581   1.442       .  S
C573        C574   1.401       .  A
C573        C578   1.402       .  A
C574        C575   1.399       .  A
C574        H583   1.083       .  S
C575        C576   1.402       .  A
C575        H584   1.084       .  S
C576        C579   1.442       .  S
C576        C577   1.402       .  A
C577        C578   1.401       .  A
C577        H585   1.083       .  S
C578        H586   1.083       .  S
C579        C580   1.207       .  T
C581        C582   1.207       .  T
C587        C595   1.440       .  S
C587        C588   1.401       .  A
C587        C592   1.402       .  A
C588        C589   1.398       .  A
C588        H597   1.084       .  S
C589        C590   1.401       .  A
C589        H598   1.084       .  S
C590        C593   1.440       .  S
C590        C591   1.402       .  A
C591        C592   1.400       .  A
C591        H599   1.083       .  S
C592        H600   1.083       .  S
C593        C594   1.206       .  T
C595        C596   1.206       .  T
C601        C609   1.438       .  S
C601        C602   1.400       .  A
C601        C606   1.402   1_455  A
C602        C603   1.398   1_455  A
C602        H611   1.083       .  S
C603        C604   1.401       .  A
C603        H612   1.084   1_655  S
C604        C607   1.439       .  S
C604        C605   1.401       .  A
C605        C606   1.399       .  A
C605        H613   1.083       .  S
C606        H614   1.083       .  S
C607        C608   1.205       .  T
C609        C610   1.205       .  T
C615        C623   1.446       .  S
C615        C616   1.402       .  A
C615        C620   1.403   1_455  A
C616        C617   1.401   1_455  A
C616        H625   1.083       .  S
C617        C618   1.402       .  A
C617        H626   1.083   1_655  S
C618        C621   1.446       .  S
C618        C619   1.402       .  A
C619        C620   1.402       .  A
C619        H627   1.083       .  S
C620        H628   1.083       .  S
C621        C622   1.210       .  T
C623        C624   1.210       .  T
C629        C637   1.436       .  S
C629        C630   1.400       .  A
C629        C634   1.401       .  A
C630        C631   1.396       .  A
C630        H639   1.083       .  S
C631        C632   1.400       .  A
C631        H640   1.084       .  S
C632        C635   1.436       .  S
C632        C633   1.401       .  A
C633        C634   1.398       .  A
C633        H641   1.083       .  S
C634        H642   1.084       .  S
C635        C636   1.203       .  T
C637        C638   1.203       .  T
C643        C651   1.445       .  S
C643        C644   1.401       .  A
C643        C648   1.403       .  A
C644        C645   1.400       .  A
C644        H653   1.083       .  S
C645        C646   1.402       .  A
C645        H654   1.084       .  S
C646        C649   1.445       .  S
C646        C647   1.402       .  A
C647        C648   1.402       .  A
C647        H655   1.083       .  S
C648        H656   1.083       .  S
C649        C650   1.209       .  T
C651        C652   1.209       .  T
C657        C665   1.445       .  S
C657        C658   1.402       .  A
C657        C662   1.402       .  A
C658        C659   1.401       .  A
C658        H667   1.083       .  S
C659        C660   1.403       .  A
C659        H668   1.084       .  S
C660        C663   1.444       .  S
C660        C661   1.402       .  A
C661        C662   1.400       .  A
C661        H669   1.083       .  S
C662        H670   1.084       .  S
C663        C664   1.209       .  T
C665        C666   1.209       .  T
C671        C679   1.438       .  S
C671        C672   1.401       .  A
C671        C676   1.401       .  A
C672        C673   1.399       .  A
C672        H681   1.083       .  S
C673        C674   1.401       .  A
C673        H682   1.084       .  S
C674        C677   1.438       .  S
C674        C675   1.401       .  A
C675        C676   1.398       .  A
C675        H683   1.083       .  S
C676        H684   1.084       .  S
C677        C678   1.205       .  T
C679        C680   1.205       .  T
C685        C693   1.438       .  S
C685        C686   1.401       .  A
C685        C690   1.401       .  A
C686        C687   1.399       .  A
C686        H695   1.083       .  S
C687        C688   1.401       .  A
C687        H696   1.084       .  S
C688        C691   1.438       .  S
C688        C689   1.401       .  A
C689        C690   1.398       .  A
C689        H697   1.084       .  S
C690        H698   1.084       .  S
C691        C692   1.205       .  T
C693        C694   1.205       .  T
C699        C707   1.445       .  S
C699        C700   1.401       .  A
C699        C704   1.403       .  A
C700        C701   1.400       .  A
C700        H709   1.083       .  S
C701        C702   1.402       .  A
C701        H710   1.083       .  S
C702        C705   1.445       .  S
C702        C703   1.402       .  A
C703        C704   1.402       .  A
C703        H711   1.083       .  S
C704        H712   1.083       .  S
C705        C706   1.209       .  T
C707        C708   1.209       .  T
C713        C721   1.440       .  S
C713        C714   1.400       .  A
C713        C718   1.402       .  A
C714        C715   1.397       .  A
C714        H723   1.084       .  S
C715        C716   1.401       .  A
C715        H724   1.084       .  S
C716        C719   1.440       .  S
C716        C717   1.402       .  A
C717        C718   1.401       .  A
C717        H725   1.083       .  S
C718        H726   1.083       .  S
C719        C720   1.206       .  T
C721        C722   1.206       .  T
C727        C735   1.442       .  S
C727        C728   1.401       .  A
C727        C732   1.402       .  A
C728        C729   1.400       .  A
C728        H737   1.083       .  S
C729        C730   1.402       .  A
C729        H738   1.084       .  S
C730        C733   1.442       .  S
C730        C731   1.401       .  A
C731        C732   1.400       .  A
C731        H739   1.083       .  S
C732        H740   1.084       .  S
C733        C734   1.207       .  T
C735        C736   1.207       .  T
C741        C749   1.438       .  S
C741        C742   1.401       .  A
C741        C746   1.401       .  A
C742        C743   1.398       .  A
C742        H751   1.083       .  S
C743        C744   1.401       .  A
C743        H752   1.084       .  S
C744        C747   1.438       .  S
C744        C745   1.401       .  A
C745        C746   1.399       .  A
C745        H753   1.083       .  S
C746        H754   1.083       .  S
C747        C748   1.205       .  T
C749        C750   1.205       .  T
C755        C763   1.445       .  S
C755        C756   1.403       .  A
C755        C760   1.402       .  A
C756        C757   1.402       .  A
C756        H765   1.083       .  S
C757        C758   1.402       .  A
C757        H766   1.083       .  S
C758        C761   1.445       .  S
C758        C759   1.402       .  A
C759        C760   1.401       .  A
C759        H767   1.084       .  S
C760        H768   1.083       .  S
C761        C762   1.209       .  T
C763        C764   1.209       .  T
O769       Cr787   1.974       .  S
O769        C777   1.258       .  A
O770       Cr787   2.005       .  S
O770        C771   1.262       .  A
C771        O772   1.260       .  A
C771       C1476   1.440       .  S
O772       Cr788   1.988       .  S
O773       Cr788   2.012       .  S
O773        C774   1.265       .  A
C774        O775   1.257       .  A
C774       C1518   1.433       .  S
O775       Cr789   1.969       .  S
O776       Cr789   2.014       .  S
O776        C777   1.265       .  A
C777       C1488   1.435       .  S
O778       Cr787   2.008       .  S
O778        C786   1.263       .  A
O779       Cr787   1.970       .  S
O779        C780   1.258       .  A
C780        O781   1.266       .  A
C780       C1462   1.433       .  S
O781       Cr788   2.014       .  S
O782       Cr788   1.984       .  S
O782        C783   1.260       .  A
C783        O784   1.264       .  A
C783       C1532   1.441       .  S
O784       Cr789   2.009       .  S
O785       Cr789   1.980       .  S
O785        C786   1.258       .  A
C786       C1502   1.437       .  S
Cr787       O790   1.773       .  S
Cr788       O790   1.777       .  S
Cr789       O790   1.775       .  S
O791        C799   1.258       .  A
O792        C793   1.263       .  A
C793        O794   1.259       .  A
C793       C1420   1.440       .  S
O795        C796   1.265       .  A
C796        O797   1.258       .  A
C796       C1448   1.432       .  S
O798        C799   1.265       .  A
C799       C1490   1.435       .  S
O800       Cr809   2.010       .  S
O800        C808   1.264       .  A
O801       Cr809   1.968       .  S
O801        C802   1.257       .  A
C802        O803   1.265       .  A
C802       C1404   1.431       .  S
O803       Cr810   2.011   1_556  S
O804       Cr810   1.982   1_556  S
O804        C805   1.259       .  A
C805        O806   1.264       .  A
C805       C1432   1.440       .  S
O806       Cr811   2.009       .  S
O807       Cr811   1.979       .  S
O807        C808   1.258       .  A
C808       C1504   1.437       .  S
Cr809       O812   1.773       .  S
Cr810       O812   1.776   1_554  S
Cr811       O812   1.774       .  S
O813       Cr831   1.973       .  S
O813        C821   1.258       .  A
O814       Cr831   2.007       .  S
O814        C815   1.263       .  A
C815        O816   1.260       .  A
C815       C1392   1.442       .  S
O816       Cr832   1.989       .  S
O817       Cr832   2.010       .  S
O817        C818   1.265       .  A
C818        O819   1.257       .  A
C818       C1446   1.433       .  S
O819       Cr833   1.971       .  S
O820       Cr833   2.014       .  S
O820        C821   1.266       .  A
C821       C1362   1.435       .  S
O822       Cr831   2.008       .  S
O822        C830   1.263       .  A
O823       Cr831   1.970       .  S
O823        C824   1.258       .  A
C824        O825   1.266       .  A
C824       C1378   1.433       .  S
O825       Cr832   2.013       .  S
O826       Cr832   1.983       .  S
O826        C827   1.260       .  A
C827        O828   1.264       .  A
C827       C1434   1.441       .  S
O828       Cr833   2.010       .  S
O829       Cr833   1.979       .  S
O829        C830   1.258       .  A
C830       C1350   1.436       .  S
Cr831       O834   1.773       .  S
Cr832       O834   1.777       .  S
Cr833       O834   1.775       .  S
O835        C843   1.258       .  A
O836        C837   1.262       .  A
C837        O838   1.259       .  A
C837       C1306   1.437       .  S
O839        C840   1.264       .  A
C840        O841   1.257       .  A
C840       C1516   1.433       .  S
O842        C843   1.266       .  A
C843       C1336   1.436       .  S
O844       Cr853   2.006       .  S
O844        C852   1.263       .  A
O845       Cr853   1.970       .  S
O845        C846   1.258       .  A
C846        O847   1.266       .  A
C846       C1292   1.434       .  S
O847       Cr854   2.016   1_556  S
O848       Cr854   1.981   1_556  S
O848        C849   1.259       .  A
C849        O850   1.265       .  A
C849       C1530   1.441       .  S
O850       Cr855   2.013       .  S
O851       Cr855   1.979       .  S
O851        C852   1.258       .  A
C852       C1322   1.435       .  S
Cr853       O856   1.773       .  S
Cr854       O856   1.776   1_554  S
Cr855       O856   1.774       .  S
O857        C865   1.258       .  A
O858        C859   1.264       .  A
C859        O860   1.260       .  A
C859       C1390   1.442       .  S
O861        C862   1.265       .  A
C862        O863   1.258       .  A
C862       C1250   1.436       .  S
O864        C865   1.265       .  A
C865       C1280   1.435       .  S
O866       Cr875   2.010       .  S
O866        C874   1.264       .  A
O867       Cr875   1.972       .  S
O867        C868   1.258       .  A
C868        O869   1.265       .  A
C868       C1376   1.434       .  S
O869       Cr876   2.013       .  S
O870       Cr876   1.983       .  S
O870        C871   1.259       .  A
C871        O872   1.264       .  A
C871       C1238   1.440       .  S
O872       Cr877   2.010       .  S
O873       Cr877   1.979       .  S
O873        C874   1.258       .  A
C874       C1266   1.438       .  S
Cr875       O878   1.774       .  S
Cr876       O878   1.777       .  S
Cr877       O878   1.775       .  S
O879       Cr897   1.973       .  S
O879        C887   1.258       .  A
O880       Cr897   2.004       .  S
O880        C881   1.262       .  A
C881        O882   1.259       .  A
C881       C1308   1.436       .  S
O882       Cr898   1.983       .  S
O883       Cr898   2.012       .  S
O883        C884   1.265       .  A
C884        O885   1.258       .  A
C884       C1252   1.436       .  S
O885       Cr899   1.975       .  S
O886       Cr899   2.013       .  S
O886        C887   1.266       .  A
C887       C1222   1.435       .  S
O888       Cr897   2.003       .  S
O888        C896   1.262       .  A
O889       Cr897   1.971       .  S
O889        C890   1.258       .  A
C890        O891   1.266       .  A
C890       C1294   1.434       .  S
O891       Cr898   2.014       .  S
O892       Cr898   1.979       .  S
O892        C893   1.259       .  A
C893        O894   1.265       .  A
C893       C1236   1.439       .  S
O894       Cr899   2.012       .  S
O895       Cr899   1.979       .  S
O895        C896   1.258       .  A
C896       C1210   1.433       .  S
Cr897       O900   1.773       .  S
Cr898       O900   1.775       .  S
Cr899       O900   1.774       .  S
O901       Cr919   1.972       .  S
O901        C909   1.257       .  A
O902       Cr919   2.009       .  S
O902        C903   1.264       .  A
C903        O904   1.260       .  A
C903       C1166   1.440       .  S
O904       Cr920   1.984       .  S
O905       Cr920   2.006       .  S
O905        C906   1.264       .  A
C906        O907   1.258       .  A
C906       C1182   1.430       .  S
O907       Cr921   1.972       .  S
O908       Cr921   2.015       .  S
O908        C909   1.266       .  A
C909       C1278   1.436       .  S
O910       Cr919   2.008       .  S
O910        C918   1.264       .  A
O911       Cr919   1.970       .  S
O911        C912   1.257       .  A
C912        O913   1.264       .  A
C912       C1152   1.431       .  S
O913       Cr920   2.009       .  S
O914       Cr920   1.981       .  S
O914        C915   1.260       .  A
C915        O916   1.265       .  A
C915       C1194   1.439       .  S
O916       Cr921   2.010       .  S
O917       Cr921   1.979       .  S
O917        C918   1.258       .  A
C918       C1264   1.436       .  S
Cr919       O922   1.772       .  S
Cr920       O922   1.776       .  S
Cr921       O922   1.774       .  S
O923        C931   1.263       .  A
O924        C925   1.258       .  A
C925        O926   1.267       .  A
C925       C1110   1.438       .  S
O927        C928   1.258       .  A
C928        O929   1.264       .  A
C928       C1126   1.436       .  S
O930        C931   1.258       .  A
C931       C1224   1.434       .  S
O932       Cr941   1.972   1_556  S
O932        C940   1.257       .  A
O933       Cr941   2.004   1_556  S
O933        C934   1.263       .  A
C934        O935   1.258       .  A
C934       C1096   1.433       .  S
O935       Cr942   1.979       .  S
O936       Cr942   2.017       .  S
O936        C937   1.267       .  A
C937        O938   1.258       .  A
C937       C1138   1.439       .  S
O938       Cr943   1.976       .  S
O939       Cr943   2.014       .  S
O939        C940   1.265       .  A
C940       C1208   1.434       .  S
Cr941       O944   1.772       .  S
Cr942       O944   1.774   1_556  S
Cr943       O944   1.774   1_556  S
O945        C953   1.257       .  A
O946        C947   1.263       .  A
C947        O948   1.259       .  A
C947       C1474   1.440       .  S
O949        C950   1.263       .  A
C950        O951   1.257       .  A
C950       C1180   1.430       .  S
O952        C953   1.265       .  A
C953       C1082   1.431       .  S
O954       Cr963   2.008       .  S
O954        C962   1.264       .  A
O955       Cr963   1.970       .  S
O955        C956   1.258       .  A
C956        O957   1.265       .  A
C956       C1460   1.433       .  S
O957       Cr964   2.012       .  S
O958       Cr964   1.982       .  S
O958        C959   1.260       .  A
C959        O960   1.264       .  A
C959       C1196   1.439       .  S
O960       Cr965   2.009       .  S
O961       Cr965   1.978       .  S
O961        C962   1.258       .  A
C962       C1068   1.435       .  S
Cr963       O966   1.772       .  S
Cr964       O966   1.775       .  S
Cr965       O966   1.775       .  S
O967       Cr985   1.969       .  S
O967        C975   1.257       .  A
O968       Cr985   2.008       .  S
O968        C969   1.264       .  A
C969        O970   1.260       .  A
C969       C1418   1.440       .  S
O970       Cr986   1.985       .  S
O971       Cr986   2.010       .  S
O971        C972   1.265       .  A
C972        O973   1.258       .  A
C972       C1124   1.435       .  S
O973       Cr987   1.976       .  S
O974       Cr987   2.010       .  S
O974        C975   1.264       .  A
C975       C1084   1.430       .  S
O976       Cr985   2.010       .  S
O976        C984   1.264       .  A
O977       Cr985   1.968       .  S
O977        C978   1.257       .  A
C978        O979   1.265       .  A
C978       C1406   1.431       .  S
O979       Cr986   2.012       .  S
O980       Cr986   1.983       .  S
O980        C981   1.260       .  A
C981        O982   1.264       .  A
C981       C1140   1.439       .  S
O982       Cr987   2.008       .  S
O983       Cr987   1.977       .  S
O983        C984   1.258       .  A
C984       C1070   1.436       .  S
Cr985       O988   1.773       .  S
Cr986       O988   1.774       .  S
Cr987       O988   1.774       .  S
O989        C997   1.258       .  A
O990        C991   1.263       .  A
C991        O992   1.260       .  A
C991       C1168   1.440       .  S
O993        C994   1.265       .  A
C994        O995   1.258       .  A
C994       C1054   1.436       .  S
O996        C997   1.265       .  A
C997       C1364   1.435       .  S
O998      Cr1007   2.009   1_556  S
O998       C1006   1.263       .  A
O999      Cr1007   1.969   1_556  S
O999       C1000   1.258       .  A
C1000      O1001   1.265       .  A
C1000      C1154   1.432       .  S
O1001     Cr1008   2.012   1_556  S
O1002     Cr1008   1.985   1_556  S
O1002      C1003   1.260       .  A
C1003      O1004   1.263       .  A
C1003      C1040   1.440       .  S
O1004     Cr1009   2.007       .  S
O1005     Cr1009   1.980       .  S
O1005      C1006   1.258       .  A
C1006      C1348   1.437       .  S
Cr1007     O1010   1.774       .  S
Cr1008     O1010   1.776       .  S
Cr1009     O1010   1.775   1_556  S
O1011     Cr1029   1.974       .  S
O1011      C1019   1.258       .  A
O1012     Cr1029   2.005       .  S
O1012      C1013   1.263       .  A
C1013      O1014   1.260       .  A
C1013      C1112   1.438       .  S
O1014     Cr1030   1.985       .  S
O1015     Cr1030   2.012       .  S
O1015      C1016   1.265       .  A
C1016      O1017   1.258       .  A
C1016      C1056   1.436       .  S
O1017     Cr1031   1.975       .  S
O1018     Cr1031   2.015       .  S
O1018      C1019   1.266       .  A
C1019      C1334   1.437       .  S
O1020     Cr1029   2.006       .  S
O1020      C1028   1.263       .  A
O1021     Cr1029   1.972       .  S
O1021      C1022   1.258       .  A
C1022      O1023   1.265       .  A
C1022      C1098   1.434       .  S
O1023     Cr1030   2.013       .  S
O1024     Cr1030   1.983       .  S
O1024      C1025   1.260       .  A
C1025      O1026   1.265       .  A
C1025      C1042   1.440       .  S
O1026     Cr1031   2.010       .  S
O1027     Cr1031   1.979       .  S
O1027      C1028   1.258       .  A
C1028      C1320   1.435       .  S
Cr1029     O1032   1.773       .  S
Cr1030     O1032   1.776       .  S
Cr1031     O1032   1.774       .  S
C1033      C1041   1.445       .  S
C1033      C1034   1.402       .  A
C1033      C1038   1.403       .  A
C1034      C1035   1.401       .  A
C1034      H1043   1.083       .  S
C1035      C1036   1.402       .  A
C1035      H1044   1.084       .  S
C1036      C1039   1.445       .  S
C1036      C1037   1.402       .  A
C1037      C1038   1.401       .  A
C1037      H1045   1.083       .  S
C1038      H1046   1.084       .  S
C1039      C1040   1.209       .  T
C1041      C1042   1.209       .  T
C1047      C1055   1.441       .  S
C1047      C1048   1.401       .  A
C1047      C1052   1.402       .  A
C1048      C1049   1.399       .  A
C1048      H1057   1.083       .  S
C1049      C1050   1.402       .  A
C1049      H1058   1.084       .  S
C1050      C1053   1.441       .  S
C1050      C1051   1.402       .  A
C1051      C1052   1.400       .  A
C1051      H1059   1.083       .  S
C1052      H1060   1.083       .  S
C1053      C1054   1.207       .  T
C1055      C1056   1.207       .  T
C1061      C1069   1.440       .  S
C1061      C1062   1.402       .  A
C1061      C1066   1.401       .  A
C1062      C1063   1.400       .  A
C1062      H1071   1.083       .  S
C1063      C1064   1.401       .  A
C1063      H1072   1.083       .  S
C1064      C1067   1.440       .  S
C1064      C1065   1.401       .  A
C1065      C1066   1.398       .  A
C1065      H1073   1.084       .  S
C1066      H1074   1.083       .  S
C1067      C1068   1.206       .  T
C1069      C1070   1.206       .  T
C1075      C1083   1.435       .  S
C1075      C1076   1.400       .  A
C1075      C1080   1.401       .  A
C1076      C1077   1.397       .  A
C1076      H1085   1.083       .  S
C1077      C1078   1.401       .  A
C1077      H1086   1.084       .  S
C1078      C1081   1.436       .  S
C1078      C1079   1.401       .  A
C1079      C1080   1.397       .  A
C1079      H1087   1.083       .  S
C1080      H1088   1.084       .  S
C1081      C1082   1.203       .  T
C1083      C1084   1.203       .  T
C1089      C1097   1.439       .  S
C1089      C1090   1.402       .  A
C1089      C1094   1.400       .  A
C1090      C1091   1.399   1_565  A
C1090      H1099   1.084       .  S
C1091      C1092   1.401       .  A
C1091      H1100   1.083       .  S
C1092      C1095   1.438       .  S
C1092      C1093   1.401   1_545  A
C1093      C1094   1.398       .  A
C1093      H1101   1.084       .  S
C1094      H1102   1.083       .  S
C1095      C1096   1.205       .  T
C1097      C1098   1.205       .  T
C1103      C1111   1.443       .  S
C1103      C1104   1.402       .  A
C1103      C1108   1.402       .  A
C1104      C1105   1.399   1_565  A
C1104      H1113   1.084       .  S
C1105      C1106   1.401       .  A
C1105      H1114   1.083       .  S
C1106      C1109   1.443       .  S
C1106      C1107   1.402   1_545  A
C1107      C1108   1.401       .  A
C1107      H1115   1.083       .  S
C1108      H1116   1.083       .  S
C1109      C1110   1.208       .  T
C1111      C1112   1.208       .  T
C1117      C1125   1.440       .  S
C1117      C1118   1.401       .  A
C1117      C1122   1.402       .  A
C1118      C1119   1.399       .  A
C1118      H1127   1.083       .  S
C1119      C1120   1.402       .  A
C1119      H1128   1.084       .  S
C1120      C1123   1.440       .  S
C1120      C1121   1.401       .  A
C1121      C1122   1.399       .  A
C1121      H1129   1.083       .  S
C1122      H1130   1.084       .  S
C1123      C1124   1.206       .  T
C1125      C1126   1.206       .  T
C1131      C1139   1.444       .  S
C1131      C1132   1.402       .  A
C1131      C1136   1.402       .  A
C1132      C1133   1.401       .  A
C1132      H1141   1.083       .  S
C1133      C1134   1.402       .  A
C1133      H1142   1.083       .  S
C1134      C1137   1.444       .  S
C1134      C1135   1.402       .  A
C1135      C1136   1.400       .  A
C1135      H1143   1.084       .  S
C1136      H1144   1.083       .  S
C1137      C1138   1.208       .  T
C1139      C1140   1.208       .  T
C1145      C1153   1.437       .  S
C1145      C1146   1.401   1_455  A
C1145      C1150   1.400       .  A
C1146      C1147   1.399       .  A
C1146      H1155   1.083       .  S
C1147      C1148   1.401       .  A
C1147      H1156   1.083       .  S
C1148      C1151   1.436       .  S
C1148      C1149   1.400       .  A
C1149      C1150   1.396   1_655  A
C1149      H1157   1.084       .  S
C1150      H1158   1.084       .  S
C1151      C1152   1.204       .  T
C1153      C1154   1.204       .  T
C1159      C1167   1.445       .  S
C1159      C1160   1.402       .  A
C1159      C1164   1.403   1_455  A
C1160      C1161   1.401   1_455  A
C1160      H1169   1.083       .  S
C1161      C1162   1.402       .  A
C1161      H1170   1.083       .  S
C1162      C1165   1.445       .  S
C1162      C1163   1.402       .  A
C1163      C1164   1.401       .  A
C1163      H1171   1.083       .  S
C1164      H1172   1.083       .  S
C1165      C1166   1.209       .  T
C1167      C1168   1.209       .  T
C1173      C1181   1.435       .  S
C1173      C1174   1.401       .  A
C1173      C1178   1.400       .  A
C1174      C1175   1.398       .  A
C1174      H1183   1.084       .  S
C1175      C1176   1.400       .  A
C1175      H1184   1.083       .  S
C1176      C1179   1.435       .  S
C1176      C1177   1.401       .  A
C1177      C1178   1.397       .  A
C1177      H1185   1.084       .  S
C1178      H1186   1.083       .  S
C1179      C1180   1.203       .  T
C1181      C1182   1.203       .  T
C1187      C1195   1.444       .  S
C1187      C1188   1.401       .  A
C1187      C1192   1.403       .  A
C1188      C1189   1.400       .  A
C1188      H1197   1.083       .  S
C1189      C1190   1.402       .  A
C1189      H1198   1.084       .  S
C1190      C1193   1.444       .  S
C1190      C1191   1.402       .  A
C1191      C1192   1.401       .  A
C1191      H1199   1.083       .  S
C1192      H1200   1.084       .  S
C1193      C1194   1.208       .  T
C1195      C1196   1.208       .  T
C1201      C1209   1.438       .  S
C1201      C1202   1.401       .  A
C1201      C1206   1.401       .  A
C1202      C1203   1.399       .  A
C1202      H1211   1.084       .  S
C1203      C1204   1.401       .  A
C1203      H1212   1.083       .  S
C1204      C1207   1.439       .  S
C1204      C1205   1.401       .  A
C1205      C1206   1.399       .  A
C1205      H1213   1.084       .  S
C1206      H1214   1.083       .  S
C1207      C1208   1.205       .  T
C1209      C1210   1.205       .  T
C1215      C1223   1.439       .  S
C1215      C1216   1.401       .  A
C1215      C1220   1.401       .  A
C1216      C1217   1.400       .  A
C1216      H1225   1.083       .  S
C1217      C1218   1.402       .  A
C1217      H1226   1.084       .  S
C1218      C1221   1.439       .  S
C1218      C1219   1.401       .  A
C1219      C1220   1.398       .  A
C1219      H1227   1.083       .  S
C1220      H1228   1.084       .  S
C1221      C1222   1.206       .  T
C1223      C1224   1.205       .  T
C1229      C1237   1.445       .  S
C1229      C1230   1.402       .  A
C1229      C1234   1.402       .  A
C1230      C1231   1.401       .  A
C1230      H1239   1.084       .  S
C1231      C1232   1.402       .  A
C1231      H1240   1.083       .  S
C1232      C1235   1.444       .  S
C1232      C1233   1.402       .  A
C1233      C1234   1.401       .  A
C1233      H1241   1.083       .  S
C1234      H1242   1.083       .  S
C1235      C1236   1.209       .  T
C1237      C1238   1.209       .  T
C1243      C1251   1.441       .  S
C1243      C1244   1.401       .  A
C1243      C1248   1.402       .  A
C1244      C1245   1.399       .  A
C1244      H1253   1.083       .  S
C1245      C1246   1.402       .  A
C1245      H1254   1.084       .  S
C1246      C1249   1.441       .  S
C1246      C1247   1.401       .  A
C1247      C1248   1.400       .  A
C1247      H1255   1.083       .  S
C1248      H1256   1.084       .  S
C1249      C1250   1.207       .  T
C1251      C1252   1.207       .  T
C1257      C1265   1.442       .  S
C1257      C1258   1.401       .  A
C1257      C1262   1.402       .  A
C1258      C1259   1.399       .  A
C1258      H1267   1.083       .  S
C1259      C1260   1.402       .  A
C1259      H1268   1.084       .  S
C1260      C1263   1.442       .  S
C1260      C1261   1.402       .  A
C1261      C1262   1.400       .  A
C1261      H1269   1.083       .  S
C1262      H1270   1.084       .  S
C1263      C1264   1.207       .  T
C1265      C1266   1.207       .  T
C1271      C1279   1.440       .  S
C1271      C1272   1.402       .  A
C1271      C1276   1.401       .  A
C1272      C1273   1.400       .  A
C1272      H1281   1.083       .  S
C1273      C1274   1.402       .  A
C1273      H1282   1.084       .  S
C1274      C1277   1.441       .  S
C1274      C1275   1.401       .  A
C1275      C1276   1.399       .  A
C1275      H1283   1.083       .  S
C1276      H1284   1.084       .  S
C1277      C1278   1.206       .  T
C1279      C1280   1.206       .  T
C1285      C1293   1.439       .  S
C1285      C1286   1.401       .  A
C1285      C1290   1.401   1_545  A
C1286      C1287   1.400   1_545  A
C1286      H1295   1.083       .  S
C1287      C1288   1.402       .  A
C1287      H1296   1.083       .  S
C1288      C1291   1.439       .  S
C1288      C1289   1.400       .  A
C1289      C1290   1.397       .  A
C1289      H1297   1.084       .  S
C1290      H1298   1.084       .  S
C1291      C1292   1.205       .  T
C1293      C1294   1.205       .  T
C1299      C1307   1.441       .  S
C1299      C1300   1.401       .  A
C1299      C1304   1.402   1_545  A
C1300      C1301   1.400   1_545  A
C1300      H1309   1.083       .  S
C1301      C1302   1.402       .  A
C1301      H1310   1.083   1_565  S
C1302      C1305   1.442       .  S
C1302      C1303   1.401       .  A
C1303      C1304   1.400       .  A
C1303      H1311   1.083       .  S
C1304      H1312   1.084       .  S
C1305      C1306   1.207       .  T
C1307      C1308   1.207       .  T
C1313      C1321   1.440       .  S
C1313      C1314   1.401       .  A
C1313      C1318   1.402       .  A
C1314      C1315   1.399       .  A
C1314      H1323   1.083       .  S
C1315      C1316   1.402       .  A
C1315      H1324   1.084       .  S
C1316      C1319   1.440       .  S
C1316      C1317   1.401       .  A
C1317      C1318   1.399       .  A
C1317      H1325   1.083       .  S
C1318      H1326   1.084       .  S
C1319      C1320   1.206       .  T
C1321      C1322   1.206       .  T
C1327      C1335   1.441       .  S
C1327      C1328   1.402       .  A
C1327      C1332   1.401       .  A
C1328      C1329   1.400       .  A
C1328      H1337   1.083       .  S
C1329      C1330   1.402       .  A
C1329      H1338   1.084       .  S
C1330      C1333   1.442       .  S
C1330      C1331   1.401       .  A
C1331      C1332   1.399       .  A
C1331      H1339   1.083       .  S
C1332      H1340   1.084       .  S
C1333      C1334   1.207       .  T
C1335      C1336   1.207       .  T
C1341      C1349   1.441       .  S
C1341      C1342   1.401       .  A
C1341      C1346   1.402       .  A
C1342      C1343   1.399       .  A
C1342      H1351   1.083       .  S
C1343      C1344   1.402       .  A
C1343      H1352   1.084       .  S
C1344      C1347   1.442       .  S
C1344      C1345   1.402       .  A
C1345      C1346   1.400       .  A
C1345      H1353   1.083       .  S
C1346      H1354   1.083       .  S
C1347      C1348   1.207       .  T
C1349      C1350   1.207       .  T
C1355      C1363   1.440       .  S
C1355      C1356   1.401       .  A
C1355      C1360   1.402       .  A
C1356      C1357   1.398       .  A
C1356      H1365   1.084       .  S
C1357      C1358   1.401       .  A
C1357      H1366   1.084       .  S
C1358      C1361   1.440       .  S
C1358      C1359   1.402       .  A
C1359      C1360   1.400       .  A
C1359      H1367   1.083       .  S
C1360      H1368   1.083       .  S
C1361      C1362   1.206       .  T
C1363      C1364   1.206       .  T
C1369      C1377   1.438       .  S
C1369      C1370   1.401       .  A
C1369      C1374   1.402   1_455  A
C1370      C1371   1.398   1_455  A
C1370      H1379   1.083       .  S
C1371      C1372   1.401       .  A
C1371      H1380   1.084   1_655  S
C1372      C1375   1.439       .  S
C1372      C1373   1.401       .  A
C1373      C1374   1.399       .  A
C1373      H1381   1.083       .  S
C1374      H1382   1.084       .  S
C1375      C1376   1.205       .  T
C1377      C1378   1.205       .  T
C1383      C1391   1.447       .  S
C1383      C1384   1.402       .  A
C1383      C1388   1.403   1_455  A
C1384      C1385   1.401   1_455  A
C1384      H1393   1.083       .  S
C1385      C1386   1.403       .  A
C1385      H1394   1.083   1_655  S
C1386      C1389   1.447       .  S
C1386      C1387   1.403       .  A
C1387      C1388   1.403       .  A
C1387      H1395   1.083       .  S
C1388      H1396   1.083       .  S
C1389      C1390   1.210       .  T
C1391      C1392   1.210       .  T
C1397      C1405   1.436       .  S
C1397      C1398   1.400       .  A
C1397      C1402   1.401       .  A
C1398      C1399   1.397       .  A
C1398      H1407   1.083       .  S
C1399      C1400   1.400       .  A
C1399      H1408   1.084       .  S
C1400      C1403   1.436       .  S
C1400      C1401   1.401       .  A
C1401      C1402   1.399       .  A
C1401      H1409   1.083       .  S
C1402      H1410   1.084       .  S
C1403      C1404   1.204       .  T
C1405      C1406   1.204       .  T
C1411      C1419   1.445       .  S
C1411      C1412   1.401       .  A
C1411      C1416   1.403       .  A
C1412      C1413   1.400       .  A
C1412      H1421   1.083       .  S
C1413      C1414   1.402       .  A
C1413      H1422   1.084       .  S
C1414      C1417   1.445       .  S
C1414      C1415   1.402       .  A
C1415      C1416   1.402       .  A
C1415      H1423   1.083       .  S
C1416      H1424   1.083       .  S
C1417      C1418   1.209       .  T
C1419      C1420   1.209       .  T
C1425      C1433   1.445       .  S
C1425      C1426   1.402       .  A
C1425      C1430   1.402       .  A
C1426      C1427   1.401       .  A
C1426      H1435   1.083       .  S
C1427      C1428   1.403       .  A
C1427      H1436   1.084       .  S
C1428      C1431   1.445       .  S
C1428      C1429   1.402       .  A
C1429      C1430   1.401       .  A
C1429      H1437   1.083       .  S
C1430      H1438   1.084       .  S
C1431      C1432   1.209       .  T
C1433      C1434   1.209       .  T
C1439      C1447   1.437       .  S
C1439      C1440   1.401       .  A
C1439      C1444   1.401       .  A
C1440      C1441   1.399       .  A
C1440      H1449   1.083       .  S
C1441      C1442   1.401       .  A
C1441      H1450   1.084       .  S
C1442      C1445   1.438       .  S
C1442      C1443   1.401       .  A
C1443      C1444   1.398       .  A
C1443      H1451   1.083       .  S
C1444      H1452   1.084       .  S
C1445      C1446   1.205       .  T
C1447      C1448   1.204       .  T
C1453      C1461   1.438       .  S
C1453      C1454   1.401       .  A
C1453      C1458   1.401       .  A
C1454      C1455   1.399       .  A
C1454      H1463   1.083       .  S
C1455      C1456   1.401       .  A
C1455      H1464   1.083       .  S
C1456      C1459   1.438       .  S
C1456      C1457   1.401       .  A
C1457      C1458   1.398       .  A
C1457      H1465   1.084       .  S
C1458      H1466   1.084       .  S
C1459      C1460   1.205       .  T
C1461      C1462   1.205       .  T
C1467      C1475   1.445       .  S
C1467      C1468   1.402       .  A
C1467      C1472   1.402       .  A
C1468      C1469   1.400       .  A
C1468      H1477   1.084       .  S
C1469      C1470   1.402       .  A
C1469      H1478   1.083       .  S
C1470      C1473   1.445       .  S
C1470      C1471   1.403       .  A
C1471      C1472   1.402       .  A
C1471      H1479   1.083       .  S
C1472      H1480   1.083       .  S
C1473      C1474   1.209       .  T
C1475      C1476   1.209       .  T
C1481      C1489   1.440       .  S
C1481      C1482   1.400       .  A
C1481      C1486   1.402       .  A
C1482      C1483   1.397       .  A
C1482      H1491   1.084       .  S
C1483      C1484   1.401       .  A
C1483      H1492   1.084       .  S
C1484      C1487   1.440       .  S
C1484      C1485   1.402       .  A
C1485      C1486   1.401       .  A
C1485      H1493   1.083       .  S
C1486      H1494   1.083       .  S
C1487      C1488   1.206       .  T
C1489      C1490   1.206       .  T
C1495      C1503   1.442       .  S
C1495      C1496   1.401       .  A
C1495      C1500   1.402       .  A
C1496      C1497   1.400       .  A
C1496      H1505   1.083       .  S
C1497      C1498   1.402       .  A
C1497      H1506   1.084       .  S
C1498      C1501   1.442       .  S
C1498      C1499   1.401       .  A
C1499      C1500   1.400       .  A
C1499      H1507   1.083       .  S
C1500      H1508   1.084       .  S
C1501      C1502   1.207       .  T
C1503      C1504   1.207       .  T
C1509      C1517   1.438       .  S
C1509      C1510   1.401       .  A
C1509      C1514   1.401       .  A
C1510      C1511   1.398       .  A
C1510      H1519   1.083       .  S
C1511      C1512   1.401       .  A
C1511      H1520   1.084       .  S
C1512      C1515   1.438       .  S
C1512      C1513   1.401       .  A
C1513      C1514   1.399       .  A
C1513      H1521   1.083       .  S
C1514      H1522   1.083       .  S
C1515      C1516   1.205       .  T
C1517      C1518   1.205       .  T
C1523      C1531   1.446       .  S
C1523      C1524   1.403       .  A
C1523      C1528   1.402       .  A
C1524      C1525   1.402       .  A
C1524      H1533   1.083       .  S
C1525      C1526   1.403       .  A
C1525      H1534   1.083       .  S
C1526      C1529   1.446       .  S
C1526      C1527   1.402       .  A
C1527      C1528   1.401       .  A
C1527      H1535   1.083       .  S
C1528      H1536   1.083       .  S
C1529      C1530   1.209       .  T
C1531      C1532   1.209       .  T
