geometry optimzed in LAMMPS
_audit_creation_date              2020-12-01 
_audit_creation_method            'lammps2cif' 
_symmetry_space_group_name_H-M    'P1' 
_symmetry_Int_Tables_number       1 
_symmetry_cell_setting            triclinic 
loop_ 
_symmetry_equiv_pos_as_xyz 
  x,y,z 
_cell_length_a                    30.98259982 
_cell_length_b                    30.98348929926342 
_cell_length_c                    30.97404308796535 
_cell_angle_alpha                 89.89241203263826 
_cell_angle_beta                  89.84301454356883 
_cell_angle_gamma                 89.70631951429051 
loop_ 
_atom_site_label 
_atom_site_type_symbol 
_atom_site_fract_x 
_atom_site_fract_y 
_atom_site_fract_z 
_atom_site_charge 
C1          C  0.51107397  0.56292386  0.31275379     0.80500
N2          N  0.49156793  0.54218051  0.27941165    -0.77800
C3          C  0.51037198  0.50655037  0.26172229     0.83000
N4          N  0.54768102  0.49082871  0.27883095    -0.77700
C5          C  0.56686630  0.51099952  0.31253747     0.83100
N6          N  0.54875034  0.54733422  0.32900236    -0.79400
C7          C  0.39542753  0.29855156  0.93492619     0.80500
N8          N  0.41421513  0.31810579  0.96939392    -0.77800
C9          C  0.39614195  0.35439526  0.98649676     0.83000
N10         N  0.35997816  0.37152966  0.96850129    -0.77700
C11         C  0.34067105  0.35156787  0.93479414     0.83100
N12         N  0.35840042  0.31504863  0.91825428    -0.79400
C13         C  0.64106034  0.49028305  0.99081095     0.80500
N14         N  0.65866077  0.52595038  0.00893252    -0.77800
C15         C  0.64290535  0.54192814  0.04656866     0.83000
N16         N  0.60891232  0.52223698  0.06600120    -0.77700
C17         C  0.59010390  0.48743930  0.04723638     0.83100
N18         N  0.60652706  0.47115073  0.00989778    -0.79400
C19         C  0.32972678  0.62885121  0.07374649     0.80500
N20         N  0.34856070  0.59324694  0.09151341    -0.77800
C21         C  0.38209675  0.57355003  0.07084906     0.83000
N22         N  0.39757903  0.59054717  0.03338024    -0.77700
C23         C  0.37922006  0.62640914  0.01603010     0.83100
N24         N  0.34496188  0.64499738  0.03599741    -0.79400
C25         C  0.25883892  0.38424982  0.25155940     0.80500
N26         N  0.29371024  0.40196097  0.23166447    -0.77800
C27         C  0.31100452  0.38258494  0.19619663     0.83000
N28         N  0.29213231  0.34656783  0.17979030    -0.77700
C29         C  0.25686777  0.32932453  0.19918289     0.83100
N30         N  0.24078916  0.34794403  0.23538248    -0.79400
C31         C  0.58060188  0.23920929  0.17473828     0.80500
N32         N  0.56405487  0.22053657  0.21089162    -0.77800
C33         C  0.52787733  0.23701605  0.22974435     0.83000
N34         N  0.50862014  0.27247187  0.21249428    -0.77700
C35         C  0.52602021  0.29216734  0.17740230     0.83100
N36         N  0.56165000  0.27520548  0.15819375    -0.79400
Zn37       Zn  0.45538613  0.45439250  0.06464069     1.49700
Zn38       Zn  0.51117873  0.42775301  0.14628610     1.49400
Zn39       Zn  0.41703307  0.46997428  0.16123197     1.49100
Zn40       Zn  0.42819917  0.37420770  0.12092197     1.49500
O41         O  0.45262090  0.43207351  0.12360335    -1.83800
O42         O  0.51683030  0.46668036  0.04584981    -0.74400
O43         O  0.51612436  0.45989860  0.20211058    -0.74300
O44         O  0.39440538  0.52151411  0.12647635    -0.73800
O45         O  0.55406359  0.45556367  0.10619106    -0.74500
O46         O  0.42398769  0.51083547  0.06172629    -0.74100
O47         O  0.45319461  0.49353819  0.21154524    -0.74600
O48         O  0.37177272  0.37294229  0.15188271    -0.74000
O49         O  0.52850217  0.36573655  0.15779396    -0.74800
O50         O  0.36503782  0.43639307  0.18495281    -0.74200
O51         O  0.46661523  0.33055742  0.14963903    -0.74600
O52         O  0.41643411  0.35438800  0.05991618    -0.74600
O53         O  0.42702038  0.41426266  0.02179880    -0.74300
C54         C  0.55183918  0.46829034  0.06721286     0.77400
C55         C  0.49190673  0.48550933  0.22333567     0.77900
C56         C  0.40108780  0.53327512  0.08750906     0.76900
C57         C  0.35121682  0.39851510  0.17663086     0.77300
C58         C  0.50613768  0.33146269  0.16043080     0.78400
C59         C  0.41483604  0.37518016  0.02451295     0.77500
C60         C  0.58500556  0.12139177  0.67957517     0.80500
N61         N  0.56624467  0.13976025  0.71474897    -0.77800
C62         C  0.52835417  0.12444047  0.73043527     0.83000
N63         N  0.50942200  0.09013172  0.71103878    -0.77700
C64         C  0.52877052  0.07052521  0.67681453     0.83100
N65         N  0.56636093  0.08648453  0.66077233    -0.79400
C66         C  0.33006578  0.73554408  0.57208293     0.80500
N67         N  0.34888648  0.77094902  0.58994312    -0.77800
C68         C  0.38241504  0.79052300  0.56922072     0.83000
N69         N  0.39774512  0.77362387  0.53161864    -0.77700
C70         C  0.37926937  0.73821761  0.51406048     0.83100
N71         N  0.34516642  0.71970775  0.53413774    -0.79400
C72         C  0.50676693  0.80371307  0.81326489     0.80500
N73         N  0.48875647  0.82460153  0.77903438    -0.77800
C74         C  0.50984842  0.85807317  0.76004114     0.83000
N75         N  0.54814940  0.87158859  0.77665354    -0.77700
C76         C  0.56587670  0.85121375  0.81127258     0.81900
N77         N  0.54528798  0.81694521  0.82901752    -0.79400
C78         C  0.64211498  0.87420254  0.48622970     0.80500
N79         N  0.65933704  0.83725602  0.50250029    -0.77800
C80         C  0.64331284  0.81954723  0.53925491     0.83000
N81         N  0.60954096  0.83891187  0.55969016    -0.77700
C82         C  0.59122713  0.87518122  0.54282692     0.83100
N83         N  0.60790910  0.89310342  0.50638601    -0.79400
C84         C  0.39057204  0.06444060  0.43185784     0.80500
N85         N  0.41124625  0.04476757  0.46530426    -0.77800
C86         C  0.39451112  0.00850612  0.48341934     0.83000
N87         N  0.35756698  0.99147158  0.46743436    -0.77700
C88         C  0.33623131  0.01142343  0.43472989     0.83100
N89         N  0.35277940  0.04798385  0.41706148    -0.79400
C90         C  0.25915039  0.98091171  0.74840539     0.80500
N91         N  0.29428075  0.96348474  0.72835409    -0.77800
C92         C  0.31232591  0.98407131  0.69389866     0.83000
N93         N  0.29391695  0.02107512  0.67863757    -0.77700
C94         C  0.25847531  0.03816852  0.69815997     0.83100
N95         N  0.24166774  0.01828199  0.73335864    -0.79400
Zn96       Zn  0.43005925  0.99082022  0.61765698     1.49700
Zn97       Zn  0.41773155  0.89510490  0.65820953     1.49400
Zn98       Zn  0.45629249  0.90902007  0.56179716     1.49100
Zn99       Zn  0.51301996  0.93542550  0.64304601     1.49500
O100        O  0.45399504  0.93225547  0.62048079    -1.83800
O101        O  0.37356884  0.99348270  0.64961507    -0.74400
O102        O  0.39484462  0.84303092  0.62442386    -0.74300
O103        O  0.42742588  0.94916819  0.51873162    -0.73800
O104        O  0.36578992  0.92948173  0.68140706    -0.74500
O105        O  0.41712318  0.00957139  0.55618750    -0.74100
O106        O  0.42456005  0.85277748  0.55966300    -0.74600
O107        O  0.55592232  0.90722499  0.60249253    -0.74000
O108        O  0.45346645  0.87227883  0.70926602    -0.74800
O109        O  0.51770878  0.89580645  0.54289899    -0.74200
O110        O  0.51748507  0.90299169  0.69903146    -0.74600
O111        O  0.53088398  0.99715789  0.65565869    -0.74600
O112        O  0.46975426  0.03391475  0.64596758    -0.74300
C113        C  0.35252862  0.96787595  0.67389956     0.77400
C114        C  0.40150846  0.83078590  0.58561904     0.77900
C115        C  0.41487416  0.98829641  0.52113943     0.76900
C116        C  0.55311807  0.89422562  0.56365402     0.77300
C117        C  0.49240180  0.87897094  0.72091722     0.78400
C118        C  0.50899960  0.03201503  0.65793033     0.77500
C119        C  0.08327651  0.12581719  0.06673513     0.80500
N120        N  0.06566520  0.09013720  0.08537517    -0.77800
C121        C  0.03016878  0.07168580  0.06750774     0.83000
N122        N  0.01162048  0.08977034  0.03215531    -0.77700
C123        C  0.02942336  0.12494330  0.01327911     0.83100
N124        N  0.06534645  0.14266666  0.03047346    -0.79400
C125        C  0.13979520  0.87544145  0.25994052     0.80500
N126        N  0.15868648  0.84033936  0.24154982    -0.77800
C127        C  0.14434949  0.82490694  0.20330256     0.83000
N128        N  0.11055912  0.84454039  0.18340720    -0.77700
C129        C  0.09039972  0.87876578  0.20216419     0.83100
N130        N  0.10532772  0.89456457  0.24030551    -0.79400
C131        C  0.89348645  0.06566423  0.31141772     0.80500
N132        N  0.91205830  0.04644910  0.27648712    -0.77800
C133        C  0.89359106  0.01109295  0.25852499     0.83000
N134        N  0.85720448  0.99430478  0.27623274    -0.77700
C135        C  0.83805702  0.01382242  0.31054507     0.83100
N136        N  0.85622365  0.04959304  0.32795538    -0.79400
C137        C  0.82811228  0.73850871  0.17203742     0.80500
N138        N  0.84387991  0.72181382  0.20932669    -0.77800
C139        C  0.87873817  0.73945206  0.22858669     0.83000
N140        N  0.89721278  0.77504146  0.21107741    -0.77700
C141        C  0.88124777  0.79280908  0.17417355     0.83100
N142        N  0.84704629  0.77395738  0.15410448    -0.79400
C143        C  0.76099201  0.98638516  0.99117975     0.80500
N144        N  0.79562309  0.96815647  0.01139756    -0.77800
C145        C  0.81462892  0.98885784  0.04506811     0.83000
N146        N  0.79767611  0.02677558  0.05939361    -0.77700
C147        C  0.76269786  0.04468441  0.03996164     0.83100
N148        N  0.74480327  0.02467478  0.00548822    -0.79400
C149        C  0.00496877  0.80247032  0.93212546     0.80500
N150        N  0.04303965  0.81603969  0.91523017    -0.77800
C151        C  0.06325224  0.85105347  0.93156807     0.83000
N152        N  0.04570682  0.87200131  0.96588524    -0.77700
C153        C  0.00793918  0.85829346  0.98364748     0.83100
N154        N  0.98710473  0.82392987  0.96611563    -0.79400
Zn155      Zn  0.92995724  0.99287360  0.12442306     1.49700
Zn156      Zn  0.95539575  0.91135078  0.18118932     1.49400
Zn157      Zn  0.91654625  0.89758966  0.08496960     1.49100
Zn158      Zn  0.01273848  0.93644009  0.10007780     1.49500
O159        O  0.95343304  0.93425204  0.12230941    -1.83800
O160        O  0.91537667  0.01165736  0.18536208    -0.74400
O161        O  0.92434279  0.85452797  0.18331134    -0.74300
O162        O  0.86564850  0.93243307  0.06008196    -0.73800
O163        O  0.92532202  0.95136059  0.22324048    -0.74500
O164        O  0.87511565  0.99681094  0.09018414    -0.74100
O165        O  0.89296235  0.84606116  0.11930570    -0.74600
O166        O  0.01666188  0.90351898  0.04416497    -0.74000
O167        O  0.01680958  0.90007743  0.20183640    -0.74800
O168        O  0.95210128  0.87375758  0.03459369    -0.74200
O169        O  0.05496064  0.90856114  0.14152220    -0.74600
O170        O  0.03186108  0.99793590  0.08767893    -0.74600
O171        O  0.97120299  0.03531054  0.09811621    -0.74300
C172        C  0.91286807  0.99047810  0.22052400     0.77400
C173        C  0.90045882  0.83314468  0.15775605     0.77900
C174        C  0.85375763  0.97149565  0.06608865     0.76900
C175        C  0.99109667  0.87975106  0.02268183     0.77300
C176        C  0.05226346  0.89753810  0.18105298     0.78400
C177        C  0.01047735  0.03313013  0.08626114     0.77500
C178        C  0.14398073  0.48733351  0.75681170     0.80500
N179        N  0.10920508  0.46859162  0.73798631    -0.77800
C180        C  0.09291831  0.48523757  0.70076169     0.83000
N181        N  0.11206769  0.51982158  0.68189902    -0.77700
C182        C  0.14624169  0.53906024  0.70105542     0.83100
N183        N  0.16190909  0.52288710  0.73858306    -0.79400
C184        C  0.75749453  0.38282640  0.50410487     0.80500
N185        N  0.79264152  0.40135375  0.52261418    -0.77800
C186        C  0.81235095  0.38167925  0.55660773     0.83000
N187        N  0.79592278  0.34436806  0.57278428    -0.77700
C188        C  0.76076400  0.32597983  0.55467719     0.83100
N189        N  0.74204085  0.34497492  0.51993341    -0.79400
C190        C  0.82478628  0.62633275  0.67861065     0.80500
N191        N  0.83778620  0.64106886  0.71771090    -0.77800
C192        C  0.87194819  0.62274864  0.73806908     0.83000
N193        N  0.89263020  0.58880714  0.71954144    -0.77700
C194        C  0.87944394  0.57310374  0.68080127     0.83100
N195        N  0.84588167  0.59247865  0.65990999    -0.79400
C196        C  0.08231977  0.24103010  0.56540042     0.80500
N197        N  0.06447012  0.22392555  0.52931068    -0.77800
C198        C  0.02771332  0.24094062  0.51250404     0.83000
N199        N  0.00897327  0.27570369  0.53177648    -0.77700
C200        C  0.02740692  0.29388505  0.56709820     0.83100
N201        N  0.06376492  0.27614375  0.58424328    -0.79400
C202        C  0.89466625  0.30156818  0.81423492     0.80500
N203        N  0.85752963  0.31799860  0.83093835    -0.77800
C204        C  0.84019087  0.35485591  0.81452530     0.83000
N205        N  0.86009281  0.37510766  0.78108521    -0.77700
C206        C  0.89642445  0.35790921  0.76330508     0.83100
N207        N  0.91390758  0.32140820  0.78017519    -0.79400
C208        C  0.00476446  0.56017442  0.43203644     0.80500
N209        N  0.04353919  0.54650350  0.41693582    -0.77800
C210        C  0.06407549  0.51256399  0.43543821     0.83000
N211        N  0.04609676  0.49284035  0.47016095    -0.77700
C212        C  0.00764015  0.50692436  0.48636499     0.83100
N213        N  0.98648342  0.54017088  0.46668223    -0.79400
Zn214      Zn  0.95720873  0.45636088  0.68457493     1.49700
Zn215      Zn  0.93072430  0.37497563  0.62916890     1.49400
Zn216      Zn  0.91689684  0.47087313  0.58948660     1.49100
Zn217      Zn  0.01221761  0.42873271  0.60216054     1.49500
O218        O  0.95397560  0.43321535  0.62602308    -1.83800
O219        O  0.92820401  0.41709872  0.72760497    -0.74400
O220        O  0.87435265  0.37322971  0.59883973    -0.74300
O221        O  0.89341917  0.52201354  0.62456736    -0.73800
O222        O  0.91827525  0.35660286  0.69044795    -0.74500
O223        O  0.92533560  0.51276392  0.68821023    -0.74100
O224        O  0.86503638  0.43693878  0.56680116    -0.74600
O225        O  0.01554494  0.46199607  0.54698939    -0.74000
O226        O  0.96910172  0.33096333  0.59976907    -0.74800
O227        O  0.95170676  0.49412668  0.53812552    -0.74200
O228        O  0.02969784  0.36721302  0.58794632    -0.74600
O229        O  0.05594493  0.45464413  0.64216177    -0.74600
O230        O  0.01903347  0.46710593  0.70267790    -0.74300
C231        C  0.91580351  0.37811624  0.72532011     0.77400
C232        C  0.85253401  0.39857107  0.57499115     0.77900
C233        C  0.90061916  0.53415650  0.66324253     0.76900
C234        C  0.99039401  0.48664832  0.52575759     0.77300
C235        C  0.00790179  0.33254946  0.58636885     0.78400
C236        C  0.05412281  0.46727108  0.68116768     0.77500
C237        C  0.93391211  0.73115688  0.88151706     0.30100
C238        C  0.89458460  0.71894633  0.86277520    -0.36300
C239        C  0.89696654  0.68614875  0.83158433     0.16100
C240        C  0.93523858  0.66598763  0.82041936     0.21900
C241        C  0.97439744  0.67786756  0.83942141    -0.34400
C242        C  0.97216205  0.71131397  0.86973311     0.16000
O243        O  0.93999158  0.76446991  0.90734500    -0.26400
C244        C  0.98268507  0.76610304  0.91171077     0.05800
C245        C  0.00424427  0.73378320  0.88911165    -0.31300
O246        O  0.93084654  0.63918709  0.78774939    -0.23100
C247        C  0.88932586  0.64243098  0.77746282    -0.03100
C248        C  0.86659269  0.67107951  0.80372958    -0.17500
H249        H  0.86469119  0.73565265  0.87001367     0.20500
H250        H  0.00483599  0.66387087  0.82929226     0.18800
H251        H  0.03871334  0.72923638  0.88536512     0.18800
H252        H  0.83324956  0.68126588  0.80093217     0.14600
C253        C  0.97395662  0.64517340  0.36465320     0.30100
C254        C  0.98081130  0.67850269  0.33470523    -0.36300
C255        C  0.94435349  0.69252711  0.31182652     0.16100
C256        C  0.90410797  0.67445575  0.31756028     0.21900
C257        C  0.89709295  0.64176338  0.34817650    -0.34400
C258        C  0.93339950  0.62822912  0.37158063     0.16000
O259        O  0.00405914  0.62459197  0.38657069    -0.26400
C260        C  0.98243553  0.59474480  0.40858333     0.05800
C261        C  0.93828719  0.59562094  0.40081767    -0.31300
O262        O  0.87548694  0.68954150  0.28992541    -0.23100
C263        C  0.89743833  0.71818550  0.26666523    -0.03100
C264        C  0.94040707  0.72167091  0.27904392    -0.17500
H265        H  0.01260489  0.69147789  0.32856066     0.20500
H266        H  0.86583568  0.62689553  0.35238062     0.18800
H267        H  0.91402491  0.57334454  0.41232416     0.18800
H268        H  0.96557247  0.74084168  0.26428133     0.14600
C269        C  0.92656894  0.14995705  0.37871667     0.30100
C270        C  0.92123232  0.18332318  0.40897198    -0.36300
C271        C  0.95855771  0.19591985  0.43118423     0.16100
C272        C  0.99824024  0.17659580  0.42446688     0.21900
C273        C  0.00378043  0.14403844  0.39347436    -0.34400
C274        C  0.96664018  0.13192292  0.37081739     0.16000
O275        O  0.89549287  0.13026762  0.35745356    -0.26400
C276        C  0.91611552  0.09999326  0.33481904     0.05800
C277        C  0.96045814  0.09975810  0.34161034    -0.31300
O278        O  0.02791562  0.19057975  0.45141044    -0.23100
C279        C  0.00723017  0.21975503  0.47534349    -0.03100
C280        C  0.96402751  0.22468912  0.46398698    -0.17500
H281        H  0.88991884  0.19732622  0.41588357     0.20500
H282        H  0.03458537  0.12821272  0.38844301     0.18800
H283        H  0.98409922  0.07693252  0.32950646     0.18800
H284        H  0.93973759  0.24478669  0.47922351     0.14600
C285        C  0.99935094  0.18791369  0.92463678     0.30100
C286        C  0.00485653  0.21959313  0.89282573    -0.36300
C287        C  0.96741064  0.23261018  0.87112129     0.16100
C288        C  0.92710588  0.21626918  0.88065673     0.21900
C289        C  0.92176591  0.18366044  0.91169378    -0.34400
C290        C  0.95940205  0.17011881  0.93295022     0.16000
O291        O  0.02937705  0.17362869  0.95110766    -0.26400
C292        C  0.00862686  0.14574515  0.97622367     0.05800
C293        C  0.96505712  0.14193221  0.96625984    -0.31300
O294        O  0.89594743  0.23705614  0.86031932    -0.23100
C295        C  0.91676497  0.26626227  0.83672196    -0.03100
C296        C  0.96126972  0.26471209  0.84182818    -0.17500
H297        H  0.03587820  0.23428012  0.88662417     0.20500
H298        H  0.89029734  0.17106346  0.91996930     0.18800
H299        H  0.94073065  0.12310023  0.98278008     0.18800
H300        H  0.98515686  0.28657717  0.82880649     0.14600
C301        C  0.14974333  0.18314376  0.63513855     0.30100
C302        C  0.16010093  0.16224575  0.67406272    -0.36300
C303        C  0.19208138  0.13006583  0.67158469     0.16100
C304        C  0.21310718  0.11973917  0.63361429     0.21900
C305        C  0.20265707  0.14054230  0.59467591    -0.34400
C306        C  0.17006758  0.17210083  0.59698213     0.16000
O307        O  0.11809738  0.21122772  0.62935144    -0.26400
C308        C  0.11782527  0.21792999  0.58690122     0.05800
C309        C  0.14942172  0.19440530  0.56511999    -0.31300
O310        O  0.24042276  0.08722209  0.63825686    -0.23100
C311        C  0.23658763  0.07626130  0.67965763    -0.03100
C312        C  0.20686303  0.10176062  0.70193537    -0.17500
H313        H  0.14310995  0.16927576  0.70380435     0.20500
H314        H  0.21759331  0.13146691  0.56439847     0.18800
H315        H  0.15467370  0.19217214  0.53063879     0.18800
H316        H  0.19666600  0.09891040  0.73526181     0.14600
C317        C  0.20601027  0.91078113  0.81936011     0.30100
C318        C  0.18589267  0.87200732  0.83135809    -0.36300
C319        C  0.15499025  0.87501723  0.86452164     0.16100
C320        C  0.14522141  0.91333287  0.88512277     0.21900
C321        C  0.16548064  0.95196589  0.87333268    -0.34400
C322        C  0.19564236  0.94912506  0.83962872     0.16000
O323        O  0.23216625  0.91637062  0.78605172    -0.26400
C324        C  0.23819922  0.95886909  0.78484834     0.05800
C325        C  0.21633918  0.98077169  0.81743762    -0.31300
O326        O  0.11310604  0.90949232  0.91288800    -0.23100
C327        C  0.10183669  0.86825163  0.90987307    -0.03100
C328        C  0.12680963  0.84522184  0.88029476    -0.17500
H329        H  0.19216729  0.84208646  0.81447277     0.20500
H330        H  0.15664143  0.98250095  0.88783737     0.18800
H331        H  0.21391356  0.01527986  0.82232103     0.18800
H332        H  0.12328295  0.81195209  0.87038210     0.14600
C333        C  0.18863445  0.94333662  0.33542364     0.30100
C334        C  0.20443935  0.98320289  0.34982937    -0.36300
C335        C  0.23965893  0.98140324  0.37823275     0.16100
C336        C  0.25726178  0.94297470  0.39259716     0.21900
C337        C  0.24117725  0.90313226  0.37860510    -0.34400
C338        C  0.20679998  0.90496700  0.34924960     0.16000
O339        O  0.16011646  0.93771479  0.30433423    -0.26400
C340        C  0.16025566  0.89525502  0.29788275     0.05800
C341        C  0.18859407  0.87328180  0.32506979    -0.31300
O342        O  0.29226589  0.94868289  0.41600302    -0.23100
C343        C  0.29759561  0.99126580  0.41617785    -0.03100
C344        C  0.26577641  0.01331480  0.39327104    -0.17500
H345        H  0.19204517  0.01349623  0.33748159     0.20500
H346        H  0.25624177  0.87290546  0.38777329     0.18800
H347        H  0.19702869  0.83933736  0.32465719     0.18800
H348        H  0.26348040  0.04760769  0.38691177     0.14600
C349        C  0.69027388  0.74124796  0.60621819     0.30100
C350        C  0.70232008  0.72304738  0.64591590    -0.36300
C351        C  0.73611789  0.69279354  0.64451939     0.16100
C352        C  0.75623593  0.68053211  0.60661897     0.21900
C353        C  0.74412672  0.69869864  0.56686647    -0.34400
C354        C  0.71080566  0.72955513  0.56835738     0.16000
O355        O  0.66221163  0.77293444  0.60064132    -0.26400
C356        C  0.66504259  0.78196023  0.55872876     0.05800
C357        C  0.69465056  0.75587173  0.53700323    -0.31300
O358        O  0.78885943  0.65372997  0.61322986    -0.23100
C359        C  0.78981200  0.64912443  0.65594224    -0.03100
C360        C  0.75779624  0.67271397  0.67701752    -0.17500
H361        H  0.68769357  0.73319553  0.67600591     0.20500
H362        H  0.76076684  0.69074274  0.53715937     0.18800
H363        H  0.70441278  0.75759300  0.50347029     0.18800
H364        H  0.75251258  0.67600682  0.71141182     0.14600
C365        C  0.69463968  0.94554935  0.41647663     0.30100
C366        C  0.71258835  0.98542822  0.40487846    -0.36300
C367        C  0.74531236  0.98410061  0.37351988     0.16100
C368        C  0.75870968  0.94627953  0.35403790     0.21900
C369        C  0.74062334  0.90641635  0.36547858    -0.34400
C370        C  0.70868164  0.90762192  0.39764075     0.16000
O371        O  0.66715339  0.93886528  0.44835815    -0.26400
C372        C  0.66387243  0.89611675  0.45026160     0.05800
C373        C  0.68899615  0.87499899  0.41949961    -0.31300
O374        O  0.79184006  0.95209062  0.32787638    -0.23100
C375        C  0.80010842  0.99406927  0.33102245    -0.03100
C376        C  0.77216181  0.01562532  0.35892495    -0.17500
H377        H  0.70335987  0.01508494  0.42088629     0.20500
H378        H  0.75228947  0.87636277  0.35196071     0.18800
H379        H  0.69398264  0.84062592  0.41560156     0.18800
H380        H  0.77278893  0.04919917  0.36846355     0.14600
C381        C  0.64845300  0.91421914  0.85543597     0.30100
C382        C  0.66934892  0.95305218  0.86542497    -0.36300
C383        C  0.69764630  0.95176168  0.90075453     0.16100
C384        C  0.70575413  0.91456344  0.92402629     0.21900
C385        C  0.68499461  0.87569698  0.91392421    -0.34400
C386        C  0.65597024  0.87722481  0.87920763     0.16000
O387        O  0.61743727  0.90929191  0.82671416    -0.26400
C388        C  0.60466281  0.86870052  0.83232942     0.05800
C389        C  0.62763341  0.84719565  0.86450334    -0.31300
O390        O  0.73100676  0.92134375  0.95759940    -0.23100
C391        C  0.73878392  0.96351881  0.95612609    -0.03100
C392        C  0.71878940  0.98410111  0.92150460    -0.17500
H393        H  0.66231586  0.98271172  0.84829180     0.20500
H394        H  0.68951932  0.84684204  0.93314328     0.18800
H395        H  0.62244851  0.81496288  0.87694438     0.18800
H396        H  0.71834618  0.01821775  0.91394434     0.14600
C397        C  0.20883799  0.62843930  0.67276572     0.30100
C398        C  0.23874965  0.66158973  0.67967840    -0.36300
C399        C  0.25594903  0.68093599  0.64248993     0.16100
C400        C  0.24474620  0.66810266  0.60138766     0.21900
C401        C  0.21391791  0.63583612  0.59446682    -0.34400
C402        C  0.19642674  0.61682690  0.63164084     0.16000
O403        O  0.19194756  0.60332821  0.70268441    -0.26400
C404        C  0.16782837  0.57580270  0.68050148     0.05800
C405        C  0.16901425  0.58287927  0.63617344    -0.31300
O406        O  0.26826549  0.68693170  0.57139863    -0.23100
C407        C  0.29437975  0.71277145  0.59340059    -0.03100
C408        C  0.28793482  0.71073622  0.63780613    -0.17500
H409        H  0.24927417  0.67036189  0.71173863     0.20500
H410        H  0.20559044  0.62500909  0.56237959     0.18800
H411        H  0.15413990  0.56400322  0.61094550     0.18800
H412        H  0.30629088  0.72638321  0.66293364     0.14600
C413        C  0.67157879  0.18781208  0.65141925     0.30100
C414        C  0.70227989  0.22022344  0.65849662    -0.36300
C415        C  0.71725824  0.24188546  0.62158138     0.16100
C416        C  0.70258333  0.23266625  0.58059853     0.21900
C417        C  0.67305478  0.19925449  0.57339872    -0.34400
C418        C  0.65851335  0.17720364  0.61022915     0.16000
O419        O  0.64909053  0.16761380  0.68145432    -0.26400
C420        C  0.62202345  0.14295128  0.65922701     0.05800
C421        C  0.62680095  0.14721640  0.61476994    -0.31300
O422        O  0.71678295  0.26027563  0.55141802    -0.23100
C423        C  0.74158350  0.28702156  0.57381754    -0.03100
C424        C  0.74344326  0.27689005  0.61757452    -0.17500
H425        H  0.71202984  0.22948342  0.69067129     0.20500
H426        H  0.66058964  0.19241934  0.54156095     0.18800
H427        H  0.60680311  0.13362498  0.58968741     0.18800
H428        H  0.75931336  0.29456454  0.64306303     0.14600
C429        C  0.46068228  0.13243223  0.37528074     0.30100
C430        C  0.50033961  0.14334526  0.35624551    -0.36300
C431        C  0.49858089  0.17366291  0.32259983     0.16100
C432        C  0.46056606  0.19293390  0.30941335     0.21900
C433        C  0.42089933  0.18215578  0.32855547    -0.34400
C434        C  0.42251433  0.15090141  0.36139361     0.16000
O435        O  0.45446968  0.10152071  0.40393300    -0.26400
C436        C  0.41176516  0.09971470  0.40814661     0.05800
C437        C  0.39019283  0.12974022  0.38246748    -0.31300
O438        O  0.46609012  0.21869464  0.27591329    -0.23100
C439        C  0.50806492  0.21541310  0.26713829    -0.03100
C440        C  0.52990990  0.18780996  0.29510561    -0.17500
H441        H  0.53018023  0.12764139  0.36552145     0.20500
H442        H  0.39069900  0.19559906  0.31717813     0.18800
H443        H  0.35574196  0.13362410  0.37811717     0.18800
H444        H  0.56366831  0.17867786  0.29451075     0.14600
C445        C  0.66909233  0.17803260  0.13954056     0.30100
C446        C  0.70435603  0.14985634  0.14420509    -0.36300
C447        C  0.71767147  0.12813524  0.10673927     0.16100
C448        C  0.69743285  0.13340749  0.06741802     0.21900
C449        C  0.66315212  0.16279790  0.06240353    -0.34400
C450        C  0.65011927  0.18487887  0.09980574     0.16000
O451        O  0.64812379  0.19749310  0.17117988    -0.26400
C452        C  0.61598283  0.21795372  0.15130964     0.05800
C453        C  0.61583542  0.21165150  0.10686205    -0.31300
O454        O  0.71158797  0.10585048  0.03808314    -0.23100
C455        C  0.74180344  0.08315988  0.05869350    -0.03100
C456        C  0.74725213  0.09596562  0.10136058    -0.17500
H457        H  0.71889361  0.14354789  0.17531812     0.20500
H458        H  0.64637367  0.16652684  0.03202541     0.18800
H459        H  0.59184658  0.22227803  0.08377610     0.18800
H460        H  0.76768703  0.08144187  0.12572989     0.14600
C461        C  0.21085366  0.24951178  0.13387125     0.30100
C462        C  0.20061306  0.22864560  0.09505273    -0.36300
C463        C  0.16849467  0.19693427  0.09765446     0.16100
C464        C  0.14825201  0.18601763  0.13588242     0.21900
C465        C  0.15822458  0.20713807  0.17458231    -0.34400
C466        C  0.18990471  0.23920882  0.17187710     0.16000
O467        O  0.23832746  0.28160195  0.13857193    -0.26400
C468        C  0.23462120  0.29216056  0.18006673     0.05800
C469        C  0.20486948  0.26694464  0.20227744    -0.31300
O470        O  0.11749495  0.15723721  0.13047759    -0.23100
C471        C  0.11782142  0.14981878  0.08819992    -0.03100
C472        C  0.14875184  0.17374831  0.06614054    -0.17500
H473        H  0.21565382  0.23743497  0.06474973     0.20500
H474        H  0.14148764  0.20002061  0.20443435     0.18800
H475        H  0.19495677  0.26945712  0.23571516     0.18800
H476        H  0.15425056  0.17545961  0.03166059     0.14600
C477        C  0.14729190  0.45011713  0.39092140     0.30100
C478        C  0.16762840  0.41145064  0.37872191    -0.36300
C479        C  0.19716411  0.41445697  0.34445727     0.16100
C480        C  0.20687307  0.45298626  0.32421921     0.21900
C481        C  0.18678572  0.49164654  0.33662641    -0.34400
C482        C  0.15657778  0.48848732  0.37021606     0.16000
O483        O  0.11506525  0.45395863  0.41862290    -0.26400
C484        C  0.10344316  0.49523360  0.41531901     0.05800
C485        C  0.12822158  0.51822346  0.38578988    -0.31300
O486        O  0.23226545  0.44777689  0.29037771    -0.23100
C487        C  0.23854062  0.40536137  0.28870474    -0.03100
C488        C  0.21754236  0.38300120  0.32149823    -0.17500
H489        H  0.15910707  0.38081336  0.39315029     0.20500
H490        H  0.19240911  0.52161850  0.31958051     0.18800
H491        H  0.12411554  0.55135441  0.37537525     0.18800
H492        H  0.21543678  0.34842560  0.32603317     0.14600
C493        C  0.40439467  0.69126008  0.92706860     0.30100
C494        C  0.39816647  0.72548814  0.89802268    -0.36300
C495        C  0.43414860  0.73714407  0.87319580     0.16100
C496        C  0.47376437  0.71695754  0.87724315     0.21900
C497        C  0.47967578  0.68190374  0.90544337    -0.34400
C498        C  0.44349897  0.66990073  0.92990683     0.16000
O499        O  0.37632845  0.67779227  0.95604650    -0.26400
C500        C  0.39740908  0.64694509  0.97733944     0.05800
C501        C  0.43927723  0.64033973  0.96227942    -0.31300
O502        O  0.50427019  0.73662662  0.85507465    -0.23100
C503        C  0.48369942  0.76913744  0.83578888    -0.03100
C504        C  0.43993528  0.77085749  0.84554063    -0.17500
H505        H  0.36793195  0.74302465  0.89627810     0.20500
H506        H  0.51078350  0.66641802  0.90949582     0.18800
H507        H  0.46379676  0.61892915  0.97514293     0.18800
H508        H  0.41674652  0.79551642  0.83658908     0.14600
C509        C  0.20965619  0.73678556  0.17521744     0.30100
C510        C  0.24099181  0.70463630  0.18200234    -0.36300
C511        C  0.25705588  0.68432671  0.14484096     0.16100
C512        C  0.24355997  0.69537146  0.10382235     0.21900
C513        C  0.21136675  0.72665421  0.09710578    -0.34400
C514        C  0.19499608  0.74662916  0.13430059     0.16000
O515        O  0.19305198  0.76234872  0.20495045    -0.26400
C516        C  0.16692323  0.78845514  0.18291110     0.05800
C517        C  0.16651708  0.77995686  0.13883875    -0.31300
O518        O  0.26632353  0.67597591  0.07353680    -0.23100
C519        C  0.29417423  0.65155019  0.09538004    -0.03100
C520        C  0.28969861  0.65506843  0.13989116    -0.17500
H521        H  0.25325558  0.69724164  0.21385278     0.20500
H522        H  0.20115049  0.73605764  0.06504887     0.18800
H523        H  0.14967121  0.79741186  0.11364736     0.18800
H524        H  0.30971920  0.64078954  0.16473693     0.14600
C525        C  0.74129631  0.67248341  0.14413191     0.30100
C526        C  0.70988310  0.64077229  0.15164450    -0.36300
C527        C  0.69262790  0.62103754  0.11483493     0.16100
C528        C  0.70576673  0.63155481  0.07354037     0.21900
C529        C  0.73622084  0.66416549  0.06601189    -0.34400
C530        C  0.75320380  0.68418314  0.10278888     0.16000
O531        O  0.76491808  0.69151749  0.17376861    -0.26400
C532        C  0.79177950  0.71639111  0.15126486     0.05800
C533        C  0.78572076  0.71348158  0.10689406    -0.31300
O534        O  0.68907248  0.60591284  0.04413174    -0.23100
C535        C  0.66432613  0.57904971  0.06670903    -0.03100
C536        C  0.66493197  0.58716600  0.11088660    -0.17500
H537        H  0.70102892  0.63077361  0.18394897     0.20500
H538        H  0.74735893  0.67198227  0.03381570     0.18800
H539        H  0.80476688  0.72805515  0.08146942     0.18800
H540        H  0.64953307  0.56897779  0.13645698     0.14600
C541        C  0.69414650  0.42122243  0.91894618     0.30100
C542        C  0.71198386  0.38153106  0.90604801    -0.36300
C543        C  0.74603623  0.38367285  0.87616748     0.16100
C544        C  0.76084996  0.42214641  0.85931171     0.21900
C545        C  0.74293402  0.46179348  0.87208282    -0.34400
C546        C  0.70955880  0.45970919  0.90266945     0.16000
O547        O  0.66555908  0.42698361  0.95008941    -0.26400
C548        C  0.66293526  0.46967329  0.95406632     0.05800
C549        C  0.68952371  0.49165418  0.92532751    -0.31300
O550        O  0.79476835  0.41688861  0.83401848    -0.23100
C551        C  0.80211152  0.37456674  0.83504821    -0.03100
C552        C  0.77281559  0.35224899  0.86075141    -0.17500
H553        H  0.70160102  0.35128548  0.92005716     0.20500
H554        H  0.75563309  0.49222322  0.86065567     0.18800
H555        H  0.69540967  0.52601549  0.92350738     0.18800
H556        H  0.77239231  0.31812304  0.86826299     0.14600
C557        C  0.19661246  0.41815000  0.82871045     0.30100
C558        C  0.21429009  0.37846068  0.84178270    -0.36300
C559        C  0.24782907  0.38058013  0.87200677     0.16100
C560        C  0.26235769  0.41902223  0.88897082     0.21900
C561        C  0.24466932  0.45868618  0.87594777    -0.34400
C562        C  0.21175648  0.45661859  0.84506986     0.16000
O563        O  0.16832268  0.42393250  0.79745897    -0.26400
C564        C  0.16561545  0.46661712  0.79352307     0.05800
C565        C  0.19187963  0.48858168  0.82233762    -0.31300
O566        O  0.29575972  0.41369708  0.91473975    -0.23100
C567        C  0.30300731  0.37136835  0.91390654    -0.03100
C568        C  0.27423068  0.34911505  0.88784115    -0.17500
H569        H  0.20410806  0.34823649  0.82775947     0.20500
H570        H  0.25713124  0.48909468  0.88749746     0.18800
H571        H  0.19759956  0.52295760  0.82422719     0.18800
H572        H  0.27391197  0.31500263  0.88039620     0.14600
C573        C  0.42661587  0.21593763  0.86464290     0.30100
C574        C  0.42052185  0.18600100  0.83126122    -0.36300
C575        C  0.45800152  0.17177545  0.80999947     0.16100
C576        C  0.49862160  0.18648302  0.82044806     0.21900
C577        C  0.50479561  0.21566397  0.85448481    -0.34400
C578        C  0.46737478  0.22938333  0.87620754     0.16000
O579        O  0.39590934  0.23678356  0.88566913    -0.26400
C580        C  0.41722544  0.26326168  0.91174515     0.05800
C581        C  0.46181909  0.25974857  0.90756728    -0.31300
O582        O  0.52876008  0.17149461  0.79421759    -0.23100
C583        C  0.50728432  0.14626462  0.76706634    -0.03100
C584        C  0.46316775  0.14502495  0.77547175    -0.17500
H585        H  0.38868146  0.17573399  0.82151510     0.20500
H586        H  0.53640473  0.22790343  0.86253235     0.18800
H587        H  0.48630157  0.27950087  0.92249312     0.18800
H588        H  0.43838040  0.12831515  0.75760826     0.14600
C589        C  0.65521863  0.48326581  0.37758260     0.30100
C590        C  0.68751378  0.49006620  0.40858888    -0.36300
C591        C  0.70525510  0.45279656  0.42754298     0.16100
C592        C  0.69164681  0.41177778  0.41708800     0.21900
C593        C  0.66033470  0.40495234  0.38526429    -0.34400
C594        C  0.64309256  0.44211221  0.36590639     0.16000
O595        O  0.63116578  0.51329684  0.35904676    -0.26400
C596        C  0.60400008  0.49104159  0.33447456     0.05800
C597        C  0.61023911  0.44665939  0.33717428    -0.31300
O598        O  0.70911815  0.38184158  0.44182572    -0.23100
C599        C  0.73490098  0.40376896  0.46800993    -0.03100
C600        C  0.73417122  0.44805006  0.46038947    -0.17500
H601        H  0.69683735  0.52213485  0.41853702     0.20500
H602        H  0.64894275  0.37297709  0.37740308     0.18800
H603        H  0.59106441  0.42142065  0.32275736     0.18800
H604        H  0.75038543  0.47315926  0.47826047     0.14600
C605        C  0.44291538  0.69645051  0.43016150     0.30100
C606        C  0.48175537  0.68586262  0.40917636    -0.36300
C607        C  0.47940107  0.65298910  0.37815891     0.16100
C608        C  0.44125959  0.63272552  0.36762886     0.21900
C609        C  0.40241593  0.64356973  0.38834269    -0.34400
C610        C  0.40498071  0.67559173  0.42012164     0.16000
O611        O  0.43852875  0.72282301  0.46332920    -0.26400
C612        C  0.39737194  0.71842329  0.47487334     0.05800
C613        C  0.37498489  0.68949115  0.44911593    -0.31300
O614        O  0.44707878  0.60014921  0.34085870    -0.23100
C615        C  0.48951873  0.59919060  0.33448860    -0.03100
C616        C  0.51127855  0.63134166  0.35680999    -0.17500
H617        H  0.51209112  0.70039379  0.41821946     0.20500
H618        H  0.37278476  0.62641163  0.38197141     0.18800
H619        H  0.34197048  0.67874335  0.45260456     0.18800
H620        H  0.54576537  0.63617740  0.35916900     0.14600
loop_ 
_geom_bond_atom_site_label_1 
_geom_bond_atom_site_label_2 
_geom_bond_distance 
_geom_bond_site_symmetry_2 
_ccdc_geom_bond_type 
C1            N2   1.362       .  A
C1            N6   1.359       .  A
C1          C615   1.468       .  S
N2            C3   1.361       .  A
C3            N4   1.360       .  A
C3           C55   1.475       .  S
N4            C5   1.358       .  A
C5            N6   1.355       .  A
C5          C596   1.471       .  S
C7            N8   1.362       .  A
C7           N12   1.357       .  A
C7          C580   1.470       .  S
N8            C9   1.361       .  A
C9           N10   1.358       .  A
C9           C59   1.465   1_556  S
N10          C11   1.356       .  A
C11          N12   1.356       .  A
C11         C567   1.467       .  S
C13          N14   1.358   1_556  A
C13          N18   1.359   1_556  A
C13         C548   1.469       .  S
N14          C15   1.356       .  A
C15          N16   1.358       .  A
C15         C535   1.471       .  S
N16          C17   1.360       .  A
C17          N18   1.359       .  A
C17          C54   1.464       .  S
C19          N20   1.361       .  A
C19          N24   1.356       .  A
C19         C519   1.465       .  S
N20          C21   1.361       .  A
C21          N22   1.361       .  A
C21          C56   1.470       .  S
N22          C23   1.356       .  A
C23          N24   1.354       .  A
C23         C500   1.468   1_554  S
C25          N26   1.360       .  A
C25          N30   1.356       .  A
C25         C487   1.463       .  S
N26          C27   1.360       .  A
C27          N28   1.362       .  A
C27          C57   1.471       .  S
N28          C29   1.357       .  A
C29          N30   1.354       .  A
C29         C468   1.471       .  S
C31          N32   1.360       .  A
C31          N36   1.358       .  A
C31         C452   1.467       .  S
N32          C33   1.360       .  A
C33          N34   1.357       .  A
C33         C439   1.471       .  S
N34          C35   1.357       .  A
C35          N36   1.357       .  A
C35          C58   1.459       .  S
Zn37         O41   1.953       .  S
Zn37         O42   2.027       .  S
Zn37         O46   1.999       .  S
Zn37         O53   2.026       .  S
Zn38         O41   1.951       .  S
Zn38         O43   2.004       .  S
Zn38         O45   2.012       .  S
Zn38         O49   2.024       .  S
Zn39         O41   1.984       .  S
Zn39         O44   2.046       .  S
Zn39         O47   2.059       .  S
Zn39         O50   2.056       .  S
Zn40         O41   1.952       .  S
Zn40         O48   1.992       .  S
Zn40         O51   2.005       .  S
Zn40         O52   2.023       .  S
O42          C54   1.273       .  A
O43          C55   1.272       .  A
O44          C56   1.277       .  A
O45          C54   1.271       .  A
O46          C56   1.272       .  A
O47          C55   1.278       .  A
O48          C57   1.271       .  A
O49          C58   1.273       .  A
O50          C57   1.278       .  A
O51          C58   1.271       .  A
O52          C59   1.272       .  A
O53          C59   1.273       .  A
C60          N61   1.358       .  A
C60          N65   1.361       .  A
C60         C420   1.470       .  S
N61          C62   1.357       .  A
C62          N63   1.359       .  A
C62         C583   1.471       .  S
N63          C64   1.359       .  A
C64          N65   1.360       .  A
C64         C118   1.467       .  S
C66          N67   1.364       .  A
C66          N71   1.356       .  A
C66         C407   1.469       .  S
N67          C68   1.364       .  A
C68          N69   1.361       .  A
C68         C114   1.475       .  S
N69          C70   1.355       .  A
C70          N71   1.354       .  A
C70         C612   1.470       .  S
C72          N73   1.361       .  A
C72          N77   1.356       .  A
C72         C503   1.465       .  S
N73          C74   1.361       .  A
C74          N75   1.363       .  A
C74         C117   1.475       .  S
N75          C76   1.359       .  A
C76          N77   1.356       .  A
C76         C388   1.475       .  S
C78          N79   1.357       .  A
C78          N83   1.359       .  A
C78         C372   1.468       .  S
N79          C80   1.357       .  A
C80          N81   1.359       .  A
C80         C356   1.471       .  S
N81          C82   1.360       .  A
C82          N83   1.359       .  A
C82         C116   1.466       .  S
C84          N85   1.361       .  A
C84          N89   1.361       .  A
C84         C436   1.472       .  S
N85          C86   1.359       .  A
C86          N87   1.358   1_545  A
C86         C115   1.467   1_545  S
N87          C88   1.357   1_565  A
C88          N89   1.359       .  A
C88         C343   1.472   1_545  S
C90          N91   1.361       .  A
C90          N95   1.358   1_565  A
C90         C324   1.470       .  S
N91          C92   1.362       .  A
C92          N93   1.362   1_565  A
C92         C113   1.476       .  S
N93          C94   1.358       .  A
C94          N95   1.355       .  A
C94         C311   1.474       .  S
Zn96        O100   1.959       .  S
Zn96        O101   2.010       .  S
Zn96        O105   2.030   1_565  S
Zn96        O112   2.023   1_565  S
Zn97        O100   1.988       .  S
Zn97        O102   2.055       .  S
Zn97        O104   2.054       .  S
Zn97        O108   2.055       .  S
Zn98        O100   1.957       .  S
Zn98        O103   2.029       .  S
Zn98        O106   2.006       .  S
Zn98        O109   2.029       .  S
Zn99        O100   1.963       .  S
Zn99        O107   2.023       .  S
Zn99        O110   2.007       .  S
Zn99        O111   2.033       .  S
O101        C113   1.273       .  A
O102        C114   1.277       .  A
O103        C115   1.274       .  A
O104        C113   1.278       .  A
O105        C115   1.273   1_545  A
O106        C114   1.273       .  A
O107        C116   1.273       .  A
O108        C117   1.278       .  A
O109        C116   1.274       .  A
O110        C117   1.272       .  A
O111        C118   1.274   1_565  A
O112        C118   1.273       .  A
C119        N120   1.362       .  A
C119        N124   1.357       .  A
C119        C471   1.468       .  S
N120        C121   1.361       .  A
C121        N122   1.357       .  A
C121        C177   1.463       .  S
N122        C123   1.355       .  A
C123        N124   1.354       .  A
C123        C292   1.465   1_554  S
C125        N126   1.358       .  A
C125        N130   1.363       .  A
C125        C340   1.473       .  S
N126        C127   1.355       .  A
C127        N128   1.357       .  A
C127        C516   1.468       .  S
N128        C129   1.359       .  A
C129        N130   1.363       .  A
C129        C176   1.469       .  S
C131        N132   1.361       .  A
C131        N136   1.358       .  A
C131        C276   1.470       .  S
N132        C133   1.359       .  A
C133        N134   1.358   1_545  A
C133        C172   1.465   1_545  S
N134        C135   1.357   1_565  A
C135        N136   1.359       .  A
C135        C375   1.470   1_545  S
C137        N138   1.356       .  A
C137        N142   1.364       .  A
C137        C532   1.471       .  S
N138        C139   1.353       .  A
C139        N140   1.357       .  A
C139        C263   1.469       .  S
N140        C141   1.361       .  A
C141        N142   1.364       .  A
C141        C173   1.476       .  S
C143        N144   1.363   1_556  A
C143        N148   1.360   1_566  A
C143        C391   1.472       .  S
N144        C145   1.362       .  A
C145        N146   1.359   1_565  A
C145        C174   1.476       .  S
N146        C147   1.357       .  A
C147        N148   1.357       .  A
C147        C455   1.473       .  S
C149        N150   1.357       .  A
C149        N154   1.361   1_455  A
C149        C244   1.469   1_455  S
N150        C151   1.355       .  A
C151        N152   1.357       .  A
C151        C327   1.472       .  S
N152        C153   1.361       .  A
C153        N154   1.362   1_455  A
C153        C175   1.474   1_456  S
Zn155       O159   1.954       .  S
Zn155       O160   2.025   1_565  S
Zn155       O164   2.008       .  S
Zn155       O171   2.008   1_565  S
Zn156       O159   1.957       .  S
Zn156       O161   2.012       .  S
Zn156       O163   2.022       .  S
Zn156       O167   2.037   1_655  S
Zn157       O159   1.990       .  S
Zn157       O162   2.057       .  S
Zn157       O165   2.053       .  S
Zn157       O168   2.044       .  S
Zn158       O159   1.962   1_455  S
Zn158       O166   2.015       .  S
Zn158       O169   2.025       .  S
Zn158       O170   2.034       .  S
O160        C172   1.273   1_545  A
O161        C173   1.274       .  A
O162        C174   1.277       .  A
O163        C172   1.273       .  A
O164        C174   1.273       .  A
O165        C173   1.277       .  A
O166        C175   1.274   1_455  A
O167        C176   1.274       .  A
O168        C175   1.277       .  A
O169        C176   1.273       .  A
O170        C177   1.274   1_565  A
O171        C177   1.272   1_655  A
C178        N179   1.360       .  A
C178        N183   1.358       .  A
C178        C564   1.467       .  S
N179        C180   1.360       .  A
C180        N181   1.358       .  A
C180        C236   1.461       .  S
N181        C182   1.356       .  A
C182        N183   1.355       .  A
C182        C404   1.467       .  S
C184        N185   1.362       .  A
C184        N189   1.359       .  A
C184        C599   1.469       .  S
N185        C186   1.360       .  A
C186        N187   1.360       .  A
C186        C232   1.470       .  S
N187        C188   1.355       .  A
C188        N189   1.356       .  A
C188        C423   1.471       .  S
C190        N191   1.358       .  A
C190        N195   1.362       .  A
C190        C359   1.470       .  S
N191        C192   1.355       .  A
C192        N193   1.356       .  A
C192        C247   1.470       .  S
N193        C194   1.360       .  A
C194        N195   1.362       .  A
C194        C233   1.475       .  S
C196        N197   1.358       .  A
C196        N201   1.360       .  A
C196        C308   1.470       .  S
N197        C198   1.357       .  A
C198        N199   1.359       .  A
C198        C279   1.473       .  S
N199        C200   1.360       .  A
C200        N201   1.360       .  A
C200        C235   1.466       .  S
C202        N203   1.357       .  A
C202        N207   1.358       .  A
C202        C295   1.464       .  S
N203        C204   1.358       .  A
C204        N205   1.358       .  A
C204        C551   1.469       .  S
N205        C206   1.359       .  A
C206        N207   1.356       .  A
C206        C231   1.461       .  S
C208        N209   1.354       .  A
C208        N213   1.362   1_455  A
C208        C260   1.465   1_455  S
N209        C210   1.353       .  A
C210        N211   1.356       .  A
C210        C484   1.468       .  S
N211        C212   1.362       .  A
C212        N213   1.362   1_455  A
C212        C234   1.472   1_455  S
Zn214       O218   1.954       .  S
Zn214       O219   2.016       .  S
Zn214       O223   2.006       .  S
Zn214       O230   2.027   1_655  S
Zn215       O218   1.949       .  S
Zn215       O220   1.986       .  S
Zn215       O222   2.017       .  S
Zn215       O226   2.021       .  S
Zn216       O218   1.988       .  S
Zn216       O221   2.052       .  S
Zn216       O224   2.051       .  S
Zn216       O227   2.051       .  S
Zn217       O218   1.953   1_455  S
Zn217       O225   1.997       .  S
Zn217       O228   2.028       .  S
Zn217       O229   2.010       .  S
O219        C231   1.271       .  A
O220        C232   1.271       .  A
O221        C233   1.277       .  A
O222        C231   1.272       .  A
O223        C233   1.273       .  A
O224        C232   1.277       .  A
O225        C234   1.272   1_455  A
O226        C235   1.272   1_655  A
O227        C234   1.278       .  A
O228        C235   1.273       .  A
O229        C236   1.272       .  A
O230        C236   1.274       .  A
C237        C242   1.381       .  A
C237        C238   1.405       .  A
C237        O243   1.322       .  A
C238        C239   1.405       .  A
C238        H249   1.082       .  S
C239        C248   1.363       .  A
C239        C240   1.381       .  A
C240        C241   1.401       .  A
C240        O246   1.318       .  A
C241        C242   1.401       .  A
C241        H250   1.082   1_655  S
C242        C245   1.358   1_655  A
O243        C244   1.331       .  A
C244        C245   1.390   1_655  A
C245        H251   1.082       .  S
O246        C247   1.329       .  A
C247        C248   1.393       .  A
C248        H252   1.082       .  S
C253        C258   1.380       .  A
C253        C254   1.403       .  A
C253        O259   1.316   1_655  A
C254        C255   1.402       .  A
C254        H265   1.082   1_655  S
C255        C264   1.363       .  A
C255        C256   1.380       .  A
C256        C257   1.404       .  A
C256        O262   1.318       .  A
C257        C258   1.402       .  A
C257        H266   1.082       .  S
C258        C261   1.364       .  A
O259        C260   1.331   1_455  A
C260        C261   1.390       .  A
C261        H267   1.082       .  S
O262        C263   1.331       .  A
C263        C264   1.391       .  A
C264        H268   1.082       .  S
C269        C274   1.380       .  A
C269        C270   1.405       .  A
C269        O275   1.321       .  A
C270        C271   1.405       .  A
C270        H281   1.082       .  S
C271        C280   1.364       .  A
C271        C272   1.380       .  A
C272        C273   1.403   1_655  A
C272        O278   1.319   1_655  A
C273        C274   1.403   1_455  A
C273        H282   1.082       .  S
C274        C277   1.362       .  A
O275        C276   1.332       .  A
C276        C277   1.390       .  A
C277        H283   1.082       .  S
O278        C279   1.331       .  A
C279        C280   1.392   1_455  A
C280        H284   1.082       .  S
C285        C290   1.381       .  A
C285        C286   1.400   1_655  A
C285        O291   1.316   1_655  A
C286        C287   1.400   1_455  A
C286        H297   1.082       .  S
C287        C296   1.358       .  A
C287        C288   1.381       .  A
C288        C289   1.403       .  A
C288        O294   1.319       .  A
C289        C290   1.403       .  A
C289        H298   1.082       .  S
C290        C293   1.362       .  A
O291        C292   1.329       .  A
C292        C293   1.391   1_455  A
C293        H299   1.082       .  S
O294        C295   1.330       .  A
C295        C296   1.389       .  A
C296        H300   1.083       .  S
C301        C306   1.380       .  A
C301        C302   1.405       .  A
C301        O307   1.320       .  A
C302        C303   1.404       .  A
C302        H313   1.082       .  S
C303        C312   1.363       .  A
C303        C304   1.380       .  A
C304        C305   1.404       .  A
C304        O310   1.320       .  A
C305        C306   1.404       .  A
C305        H314   1.082       .  S
C306        C309   1.363       .  A
O307        C308   1.331       .  A
C308        C309   1.391       .  A
C309        H315   1.082       .  S
O310        C311   1.331       .  A
C311        C312   1.393       .  A
C312        H316   1.082       .  S
C317        C322   1.381       .  A
C317        C318   1.405       .  A
C317        O323   1.322       .  A
C318        C319   1.405       .  A
C318        H329   1.082       .  S
C319        C328   1.363       .  A
C319        C320   1.381       .  A
C320        C321   1.402       .  A
C320        O326   1.319       .  A
C321        C322   1.402       .  A
C321        H330   1.082       .  S
C322        C325   1.359       .  A
O323        C324   1.331       .  A
C324        C325   1.390       .  A
C325        H331   1.082   1_565  S
O326        C327   1.330       .  A
C327        C328   1.393       .  A
C328        H332   1.082       .  S
C333        C338   1.381       .  A
C333        C334   1.405       .  A
C333        O339   1.321       .  A
C334        C335   1.404       .  A
C334        H345   1.082   1_565  S
C335        C344   1.364   1_565  A
C335        C336   1.380       .  A
C336        C337   1.403       .  A
C336        O342   1.319       .  A
C337        C338   1.403       .  A
C337        H346   1.082       .  S
C338        C341   1.361       .  A
O339        C340   1.331       .  A
C340        C341   1.393       .  A
C341        H347   1.082       .  S
O342        C343   1.331       .  A
C343        C344   1.392   1_565  A
C344        H348   1.082       .  S
C349        C354   1.381       .  A
C349        C350   1.402       .  A
C349        O355   1.319       .  A
C350        C351   1.402       .  A
C350        H361   1.082       .  S
C351        C360   1.360       .  A
C351        C352   1.381       .  A
C352        C353   1.404       .  A
C352        O358   1.321       .  A
C353        C354   1.404       .  A
C353        H362   1.082       .  S
C354        C357   1.362       .  A
O355        C356   1.330       .  A
C356        C357   1.392       .  A
C357        H363   1.082       .  S
O358        C359   1.331       .  A
C359        C360   1.391       .  A
C360        H364   1.082       .  S
C365        C370   1.381       .  A
C365        C366   1.403       .  A
C365        O371   1.319       .  A
C366        C367   1.403       .  A
C366        H377   1.082   1_565  S
C367        C376   1.362   1_565  A
C367        C368   1.381       .  A
C368        C369   1.403       .  A
C368        O374   1.319       .  A
C369        C370   1.403       .  A
C369        H378   1.082       .  S
C370        C373   1.361       .  A
O371        C372   1.330       .  A
C372        C373   1.391       .  A
C373        H379   1.082       .  S
O374        C375   1.331       .  A
C375        C376   1.391   1_565  A
C376        H380   1.082       .  S
C381        C386   1.380       .  A
C381        C382   1.405       .  A
C381        O387   1.321       .  A
C382        C383   1.404       .  A
C382        H393   1.082       .  S
C383        C392   1.363       .  A
C383        C384   1.381       .  A
C384        C385   1.404       .  A
C384        O390   1.321       .  A
C385        C386   1.404       .  A
C385        H394   1.082       .  S
C386        C389   1.362       .  A
O387        C388   1.331       .  A
C388        C389   1.393       .  A
C389        H395   1.082       .  S
O390        C391   1.331       .  A
C391        C392   1.392       .  A
C392        H396   1.082   1_565  S
C397        C402   1.380       .  A
C397        C398   1.404       .  A
C397        O403   1.318       .  A
C398        C399   1.403       .  A
C398        H409   1.082       .  S
C399        C408   1.365       .  A
C399        C400   1.380       .  A
C400        C401   1.403       .  A
C400        O406   1.316       .  A
C401        C402   1.401       .  A
C401        H410   1.082       .  S
C402        C405   1.362       .  A
O403        C404   1.330       .  A
C404        C405   1.390       .  A
C405        H411   1.082       .  S
O406        C407   1.331       .  A
C407        C408   1.391       .  A
C408        H412   1.082       .  S
C413        C418   1.380       .  A
C413        C414   1.405       .  A
C413        O419   1.320       .  A
C414        C415   1.404       .  A
C414        H425   1.082       .  S
C415        C424   1.363       .  A
C415        C416   1.380       .  A
C416        C417   1.404       .  A
C416        O422   1.319       .  A
C417        C418   1.403       .  A
C417        H426   1.082       .  S
C418        C421   1.363       .  A
O419        C420   1.331       .  A
C420        C421   1.391       .  A
C421        H427   1.082       .  S
O422        C423   1.330       .  A
C423        C424   1.392       .  A
C424        H428   1.082       .  S
C429        C434   1.381       .  A
C429        C430   1.404       .  A
C429        O435   1.319       .  A
C430        C431   1.403       .  A
C430        H441   1.082       .  S
C431        C440   1.363       .  A
C431        C432   1.380       .  A
C432        C433   1.405       .  A
C432        O438   1.319       .  A
C433        C434   1.404       .  A
C433        H442   1.082       .  S
C434        C437   1.364       .  A
O435        C436   1.331       .  A
C436        C437   1.392       .  A
C437        H443   1.082       .  S
O438        C439   1.331       .  A
C439        C440   1.391       .  A
C440        H444   1.082       .  S
C445        C450   1.381       .  A
C445        C446   1.403       .  A
C445        O451   1.319       .  A
C446        C447   1.403       .  A
C446        H457   1.082       .  S
C447        C456   1.361       .  A
C447        C448   1.380       .  A
C448        C449   1.404       .  A
C448        O454   1.321       .  A
C449        C450   1.404       .  A
C449        H458   1.082       .  S
C450        C453   1.362       .  A
O451        C452   1.330       .  A
C452        C453   1.391       .  A
C453        H459   1.082       .  S
O454        C455   1.332       .  A
C455        C456   1.392       .  A
C456        H460   1.082       .  S
C461        C466   1.380       .  A
C461        C462   1.404       .  A
C461        O467   1.321       .  A
C462        C463   1.404       .  A
C462        H473   1.082       .  S
C463        C472   1.361       .  A
C463        C464   1.381       .  A
C464        C465   1.403       .  A
C464        O470   1.320       .  A
C465        C466   1.403       .  A
C465        H474   1.082       .  S
C466        C469   1.360       .  A
O467        C468   1.331       .  A
C468        C469   1.391       .  A
C469        H475   1.082       .  S
O470        C471   1.330       .  A
C471        C472   1.392       .  A
C472        H476   1.082       .  S
C477        C482   1.381       .  A
C477        C478   1.403       .  A
C477        O483   1.320       .  A
C478        C479   1.403       .  A
C478        H489   1.082       .  S
C479        C488   1.359       .  A
C479        C480   1.381       .  A
C480        C481   1.401       .  A
C480        O486   1.319       .  A
C481        C482   1.401       .  A
C481        H490   1.082       .  S
C482        C485   1.358       .  A
O483        C484   1.331       .  A
C484        C485   1.390       .  A
C485        H491   1.082       .  S
O486        C487   1.329       .  A
C487        C488   1.390       .  A
C488        H492   1.082       .  S
C493        C498   1.380       .  A
C493        C494   1.402       .  A
C493        O499   1.317       .  A
C494        C495   1.401       .  A
C494        H505   1.082       .  S
C495        C504   1.362       .  A
C495        C496   1.381       .  A
C496        C497   1.404       .  A
C496        O502   1.318       .  A
C497        C498   1.403       .  A
C497        H506   1.082       .  S
C498        C501   1.363       .  A
O499        C500   1.330       .  A
C500        C501   1.392       .  A
C501        H507   1.082       .  S
O502        C503   1.331       .  A
C503        C504   1.389       .  A
C504        H508   1.082       .  S
C509        C514   1.381       .  A
C509        C510   1.403       .  A
C509        O515   1.318       .  A
C510        C511   1.402       .  A
C510        H521   1.082       .  S
C511        C520   1.363       .  A
C511        C512   1.381       .  A
C512        C513   1.403       .  A
C512        O518   1.316       .  A
C513        C514   1.401       .  A
C513        H522   1.082       .  S
C514        C517   1.362       .  A
O515        C516   1.330       .  A
C516        C517   1.391       .  A
C517        H523   1.082       .  S
O518        C519   1.330       .  A
C519        C520   1.390       .  A
C520        H524   1.082       .  S
C525        C530   1.380       .  A
C525        C526   1.405       .  A
C525        O531   1.318       .  A
C526        C527   1.403       .  A
C526        H537   1.082       .  S
C527        C536   1.365       .  A
C527        C528   1.380       .  A
C528        C529   1.405       .  A
C528        O534   1.318       .  A
C529        C530   1.403       .  A
C529        H538   1.082       .  S
C530        C533   1.366       .  A
O531        C532   1.332       .  A
C532        C533   1.391       .  A
C533        H539   1.082       .  S
O534        C535   1.331       .  A
C535        C536   1.392       .  A
C536        H540   1.082       .  S
C541        C546   1.381       .  A
C541        C542   1.404       .  A
C541        O547   1.320       .  A
C542        C543   1.403       .  A
C542        H553   1.082       .  S
C543        C552   1.362       .  A
C543        C544   1.381       .  A
C544        C545   1.403       .  A
C544        O550   1.319       .  A
C545        C546   1.402       .  A
C545        H554   1.082       .  S
C546        C549   1.361       .  A
O547        C548   1.331       .  A
C548        C549   1.391       .  A
C549        H555   1.082       .  S
O550        C551   1.330       .  A
C551        C552   1.391       .  A
C552        H556   1.082       .  S
C557        C562   1.381       .  A
C557        C558   1.403       .  A
C557        O563   1.319       .  A
C558        C559   1.402       .  A
C558        H569   1.082       .  S
C559        C568   1.361       .  A
C559        C560   1.381       .  A
C560        C561   1.402       .  A
C560        O566   1.318       .  A
C561        C562   1.402       .  A
C561        H570   1.082       .  S
C562        C565   1.360       .  A
O563        C564   1.330       .  A
C564        C565   1.391       .  A
C565        H571   1.082       .  S
O566        C567   1.330       .  A
C567        C568   1.391       .  A
C568        H572   1.082       .  S
C573        C578   1.380       .  A
C573        C574   1.404       .  A
C573        O579   1.318       .  A
C574        C575   1.403       .  A
C574        H585   1.082       .  S
C575        C584   1.363       .  A
C575        C576   1.380       .  A
C576        C577   1.404       .  A
C576        O582   1.319       .  A
C577        C578   1.403       .  A
C577        H586   1.082       .  S
C578        C581   1.363       .  A
O579        C580   1.331       .  A
C580        C581   1.391       .  A
C581        H587   1.082       .  S
O582        C583   1.331       .  A
C583        C584   1.391       .  A
C584        H588   1.082       .  S
C589        C594   1.380       .  A
C589        C590   1.406       .  A
C589        O595   1.321       .  A
C590        C591   1.405       .  A
C590        H601   1.082       .  S
C591        C600   1.365       .  A
C591        C592   1.380       .  A
C592        C593   1.402       .  A
C592        O598   1.317       .  A
C593        C594   1.401       .  A
C593        H602   1.082       .  S
C594        C597   1.361       .  A
O595        C596   1.332       .  A
C596        C597   1.390       .  A
C597        H603   1.082       .  S
O598        C599   1.330       .  A
C599        C600   1.392       .  A
C600        H604   1.082       .  S
C605        C610   1.381       .  A
C605        C606   1.404       .  A
C605        O611   1.320       .  A
C606        C607   1.404       .  A
C606        H617   1.082       .  S
C607        C616   1.362       .  A
C607        C608   1.381       .  A
C608        C609   1.402       .  A
C608        O614   1.319       .  A
C609        C610   1.402       .  A
C609        H618   1.082       .  S
C610        C613   1.360       .  A
O611        C612   1.331       .  A
C612        C613   1.390       .  A
C613        H619   1.082       .  S
O614        C615   1.329       .  A
C615        C616   1.392       .  A
C616        H620   1.082       .  S
