geometry optimzed in LAMMPS
_audit_creation_date              2020-12-01 
_audit_creation_method            'lammps2cif' 
_symmetry_space_group_name_H-M    'P1' 
_symmetry_Int_Tables_number       1 
_symmetry_cell_setting            triclinic 
loop_ 
_symmetry_equiv_pos_as_xyz 
  x,y,z 
_cell_length_a                    34.69519171 
_cell_length_b                    34.755565092157596 
_cell_length_c                    25.667427028237487 
_cell_angle_alpha                 89.40855201036726 
_cell_angle_beta                  88.83942501436633 
_cell_angle_gamma                 90.40085474244638 
loop_ 
_atom_site_label 
_atom_site_type_symbol 
_atom_site_fract_x 
_atom_site_fract_y 
_atom_site_fract_z 
_atom_site_charge 
O1          O  0.03604014  0.84217117  0.05582077    -0.70600
O2          O  0.95669000  0.76642791  0.05729349    -0.70800
O3          O  0.03571799  0.76608585  0.05512770    -0.70700
O4          O  0.95851035  0.84382608  0.05761670    -0.70700
O5          O  0.95777429  0.83923350  0.45911775    -0.70700
O6          O  0.03552755  0.76389123  0.46044763    -0.70700
O7          O  0.95658744  0.76298522  0.46214852    -0.70600
O8          O  0.03497001  0.83990776  0.45801256    -0.70800
V9          V  0.99657313  0.80441236  0.05490210     1.35200
V10         V  0.99616914  0.80120709  0.46160211     1.35200
C11         C  0.04776892  0.85363428  0.49971946     0.78600
C12         C  0.94166465  0.75153080  0.50505399     0.78700
C13         C  0.05053617  0.75557287  0.01210505     0.78500
C14         C  0.94676994  0.85814848  0.01532336     0.78500
O15         O  0.81287196  0.05875080  0.44159987    -0.70600
O16         O  0.73699784  0.97947487  0.44479149    -0.70800
O17         O  0.73661587  0.05854548  0.44124178    -0.70700
O18         O  0.81378817  0.98135256  0.44557878    -0.70700
O19         O  0.81200562  0.98181526  0.03314523    -0.70700
O20         O  0.73617320  0.05995485  0.03132339    -0.70700
O21         O  0.73507146  0.98034891  0.03233331    -0.70600
O22         O  0.81231992  0.05827527  0.03206025    -0.70800
V23         V  0.77475910  0.01947700  0.44487373     1.35200
V24         V  0.77342491  0.01996853  0.03060751     1.35200
C25         C  0.82471967  0.07311349  0.98979397     0.78600
C26         C  0.72593628  0.96350451  0.99071120     0.78700
C27         C  0.72611295  0.07533309  0.48267032     0.78500
C28         C  0.82611949  0.96939116  0.48884583     0.78500
O29         O  0.03646341  0.19559489  0.44232692    -0.70600
O30         O  0.96912044  0.28136356  0.44402387    -0.70800
O31         O  0.04768551  0.27195573  0.44471373    -0.70700
O32         O  0.96029320  0.20578278  0.44132477    -0.70700
O33         O  0.96088694  0.19965156  0.03367171    -0.70700
O34         O  0.04248740  0.27316842  0.03276955    -0.70700
O35         O  0.96367147  0.27595076  0.03411690    -0.70600
O36         O  0.03734354  0.19690461  0.03211359    -0.70800
V37         V  0.00355895  0.23900142  0.44458912     1.35200
V38         V  0.00113023  0.23684484  0.03156795     1.35200
C39         C  0.04721772  0.18088589  0.99010262     0.78600
C40         C  0.95044767  0.28922482  0.99216145     0.78700
C41         C  0.05968939  0.28214384  0.99040800     0.78500
C42         C  0.94644799  0.19075228  0.48265095     0.78500
O43         O  0.18392649  0.05880131  0.04434245    -0.70600
O44         O  0.26352845  0.98436803  0.05147415    -0.70800
O45         O  0.26054623  0.06361546  0.04675625    -0.70700
O46         O  0.18735563  0.98230341  0.05022214    -0.70700
O47         O  0.18703816  0.97957862  0.45902087    -0.70700
O48         O  0.26428135  0.05761565  0.46274907    -0.70700
O49         O  0.26327969  0.97833239  0.46551523    -0.70600
O50         O  0.18778853  0.05585514  0.45667227    -0.70800
V51         V  0.22434391  0.02236473  0.04662933     1.35200
V52         V  0.22602776  0.01789549  0.46265366     1.35200
C53         C  0.16980104  0.06716507  0.49680041     0.78600
C54         C  0.27216689  0.96402590  0.50913931     0.78700
C55         C  0.27229561  0.07825639  0.00397094     0.78500
C56         C  0.17461797  0.96816963  0.00885297     0.78500
C57         C  0.20271097  0.67580156  0.99265711    -0.01300
C58         C  0.33015628  0.80354963  0.00542985    -0.01300
O59         O  0.53159594  0.76451171  0.20070931    -0.70600
O60         O  0.45213377  0.76261132  0.30436364    -0.70800
O61         O  0.45320051  0.76548554  0.19920956    -0.70700
O62         O  0.53014338  0.76378842  0.30583340    -0.70700
O63         O  0.53388073  0.82579690  0.29881751    -0.70700
O64         O  0.45025093  0.82733185  0.20759070    -0.70700
O65         O  0.45650097  0.82472988  0.31144659    -0.70600
O66         O  0.52790983  0.82681284  0.19550322    -0.70800
V67         V  0.49176241  0.76514428  0.25244206     1.35200
V68         V  0.49208788  0.82497797  0.25329824     1.35200
C69         C  0.54301920  0.79572911  0.17997293     0.78600
C70         C  0.44156546  0.79302592  0.32668498     0.78700
C71         C  0.43803613  0.79731436  0.18604428     0.78500
C72         C  0.54546269  0.79526874  0.32004549     0.78500
C73         C  0.65520663  0.80334802  0.00181479    -0.01300
C74         C  0.78285169  0.68039574  0.50829542    -0.01300
C75         C  0.34947464  0.23092588  0.49834424    -0.01300
C76         C  0.21664071  0.35519820  0.99698032    -0.01300
O77         O  0.24898221  0.55231897  0.18723058    -0.70600
O78         O  0.25346703  0.48038539  0.29961565    -0.70800
O79         O  0.25335259  0.47494016  0.19559166    -0.70700
O80         O  0.24851292  0.55733290  0.29257755    -0.70700
O81         O  0.18621465  0.55156832  0.29531882    -0.70700
O82         O  0.19115099  0.47254673  0.19540018    -0.70700
O83         O  0.19104415  0.47448205  0.29932942    -0.70600
O84         O  0.18647494  0.54917533  0.19098815    -0.70800
V85         V  0.24993666  0.51627407  0.24364829     1.35200
V86         V  0.18997088  0.51211738  0.24523623     1.35200
C87         C  0.21684645  0.56309083  0.17005274     0.78600
C88         C  0.22303580  0.46483606  0.31795321     0.78700
C89         C  0.22290965  0.45924039  0.17920234     0.78500
C90         C  0.21633910  0.56753358  0.31194675     0.78500
O91         O  0.47197476  0.28130134  0.19163294    -0.70600
O92         O  0.54837872  0.28217562  0.29724762    -0.70800
O93         O  0.54930497  0.28708622  0.19286128    -0.70700
O94         O  0.47068621  0.27737275  0.29716983    -0.70700
O95         O  0.47729468  0.21539904  0.29693419    -0.70700
O96         O  0.55037640  0.22480571  0.18522433    -0.70700
O97         O  0.55422650  0.22045936  0.28781878    -0.70600
O98         O  0.47343243  0.21888143  0.19239108    -0.70800
V99         V  0.51004427  0.28089984  0.24466763     1.35200
V100        V  0.51363640  0.22113531  0.24072273     1.35200
C101        C  0.46015450  0.24958074  0.17352613     0.78600
C102        C  0.56457200  0.25094924  0.30983714     0.78700
C103        C  0.56289511  0.25759441  0.17117961     0.78500
C104        C  0.46134977  0.24484066  0.31621679     0.78500
C105        C  0.66925457  0.23961443  0.99114725    -0.01300
C106        C  0.79632311  0.36353091  0.01258866    -0.01300
O107        O  0.80340529  0.47968208  0.31011205    -0.70600
O108        O  0.80891765  0.56455699  0.21775801    -0.70800
O109        O  0.80225295  0.55654333  0.32054966    -0.70700
O110        O  0.80993670  0.48805811  0.20669838    -0.70700
O111        O  0.74743076  0.48460581  0.20378301    -0.70700
O112        O  0.74001045  0.55792207  0.31253239    -0.70700
O113        O  0.74711310  0.56199881  0.20834038    -0.70600
O114        O  0.74100483  0.47968683  0.30789874    -0.70800
V115        V  0.80485949  0.52211425  0.26374176     1.35200
V116        V  0.74498279  0.52112655  0.25835801     1.35200
C117        C  0.77162240  0.46481591  0.32483635     0.78600
C118        C  0.77927745  0.57755312  0.19636356     0.78700
C119        C  0.76996495  0.56985083  0.33468526     0.78500
C120        C  0.78002200  0.47430491  0.18636593     0.78500
C121        C  0.78343945  0.44652698  0.14319448    -0.04200
C122        C  0.80215312  0.45752080  0.09656015    -0.01300
C123        C  0.80910417  0.43053994  0.05685959     0.03700
C124        C  0.79383438  0.39190007  0.06065738    -0.04200
C125        C  0.77887428  0.38055076  0.11130843    -0.01300
C126        C  0.77185169  0.40810496  0.15061858     0.03700
C127        C  0.81374455  0.49738257  0.08847939     0.38300
C128        C  0.77441336  0.34060377  0.12712240     0.38300
C129        C  0.75381052  0.39655455  0.20003048     0.36800
C130        C  0.83476194  0.44354126  0.01495705     0.36800
N131        N  0.73926519  0.38744512  0.23926346    -0.38100
N132        N  0.85565073  0.45743634  0.98436212    -0.38100
N133        N  0.77014794  0.30968635  0.14347723    -0.37500
N134        N  0.82309286  0.52886892  0.08027071    -0.37500
C135        C  0.78839216  0.38789031  0.45692555     0.00600
C136        C  0.75317358  0.40953687  0.45116889    -0.01300
C137        C  0.74447146  0.42937680  0.40411778     0.03700
C138        C  0.77177679  0.43201205  0.36319832    -0.04200
C139        C  0.80495793  0.40952790  0.36610990    -0.01300
C140        C  0.81591035  0.39339267  0.41398889     0.03700
C141        C  0.73075419  0.42243024  0.49567874     0.38300
C142        C  0.82999246  0.40555086  0.32024438     0.38300
C143        C  0.85754731  0.39295743  0.41994402     0.36800
C144        C  0.70849296  0.45035401  0.39996880     0.36800
N145        N  0.89080235  0.39400237  0.42298287    -0.38100
N146        N  0.67990620  0.46712382  0.39697097    -0.38100
N147        N  0.84985339  0.40235520  0.28378898    -0.37500
N148        N  0.71290258  0.43679509  0.52865016    -0.37500
C149        C  0.76364879  0.32972603  0.01714090    -0.04200
C150        C  0.72363293  0.33740632  0.01744597    -0.01300
C151        C  0.69673003  0.31076477  0.99817971     0.03700
C152        C  0.70470488  0.27022275  0.99456736    -0.04200
C153        C  0.74521808  0.25940932  0.50531840    -0.01300
C154        C  0.77359738  0.28812562  0.51749566     0.03700
C155        C  0.70713559  0.36145982  0.05775478     0.38300
C156        C  0.75829633  0.21996297  0.51073373     0.38300
C157        C  0.80903415  0.27470164  0.54099641     0.36800
C158        C  0.66073085  0.32815447  0.98320233     0.36800
N159        N  0.83675804  0.26320589  0.55989940    -0.38100
N160        N  0.63461851  0.34623823  0.97043559    -0.38100
N161        N  0.77082893  0.18948254  0.51691142    -0.37500
N162        N  0.69198910  0.37831969  0.09094714    -0.37500
C163        C  0.59304226  0.24817461  0.35206630    -0.04200
C164        C  0.58810368  0.21876359  0.38938051    -0.01300
C165        C  0.61404827  0.21466838  0.43050710     0.03700
C166        C  0.64595860  0.24127022  0.43709898    -0.04200
C167        C  0.65248781  0.26848991  0.39478699    -0.01300
C168        C  0.62524125  0.27274803  0.35446488     0.03700
C169        C  0.55350114  0.19450621  0.38855492     0.38300
C170        C  0.68713832  0.29174587  0.38897697     0.38300
C171        C  0.63051518  0.30252169  0.31472638     0.36800
C172        C  0.60359533  0.18439431  0.46756858     0.36800
N173        N  0.63475938  0.32625359  0.28311985    -0.38100
N174        N  0.59166258  0.15910235  0.49293642    -0.38100
N175        N  0.71408480  0.31109197  0.38201048    -0.37500
N176        N  0.52604254  0.17540019  0.38830671    -0.37500
C177        C  0.59096515  0.26131228  0.12770701    -0.04200
C178        C  0.57759302  0.26917200  0.07802140    -0.01300
C179        C  0.60238868  0.26604001  0.03411369     0.03700
C180        C  0.64157763  0.25182273  0.03910163    -0.04200
C181        C  0.65584509  0.25186447  0.09161696    -0.01300
C182        C  0.63032324  0.25545816  0.13509536     0.03700
C183        C  0.53764732  0.28109615  0.07222021     0.38300
C184        C  0.69537596  0.24248905  0.10357035     0.38300
C185        C  0.64394911  0.24908047  0.18764497     0.36800
C186        C  0.58590859  0.28107064  0.98658003     0.36800
N187        N  0.65511260  0.24318554  0.22911941    -0.38100
N188        N  0.57043700  0.29423122  0.95109529    -0.38100
N189        N  0.72591661  0.23445757  0.11715772    -0.37500
N190        N  0.50619309  0.29108240  0.06706218    -0.37500
C191        C  0.22452185  0.43700709  0.36182127    -0.04200
C192        C  0.23275345  0.45015607  0.41158256    -0.01300
C193        C  0.22684395  0.42593635  0.45556635     0.03700
C194        C  0.22134946  0.38466312  0.45005649    -0.04200
C195        C  0.21483060  0.37202434  0.39743129    -0.01300
C196        C  0.21490806  0.39825799  0.35484033     0.03700
C197        C  0.24471208  0.49009813  0.41801333     0.38300
C198        C  0.20975647  0.33178285  0.38460346     0.38300
C199        C  0.20715937  0.38479124  0.30266217     0.36800
C200        C  0.21906529  0.44716137  0.50292463     0.36800
N201        N  0.20122400  0.37356687  0.26130403    -0.38100
N202        N  0.21170175  0.46685817  0.53778974    -0.38100
N203        N  0.20602375  0.30054827  0.37027603    -0.37500
N204        N  0.25451100  0.52167284  0.42347634    -0.37500
C205        C  0.22376392  0.42668199  0.14088485    -0.04200
C206        C  0.19024805  0.40453746  0.13204931    -0.01300
C207        C  0.18896215  0.37789122  0.09073611     0.03700
C208        C  0.21974851  0.37613708  0.05208816    -0.04200
C209        C  0.25517978  0.39492937  0.06634430    -0.01300
C210        C  0.25725926  0.41841716  0.11110553     0.03700
C211        C  0.15665387  0.40795172  0.16668036     0.38300
C212        C  0.28908003  0.39572070  0.03239454     0.38300
C213        C  0.29391870  0.43621408  0.12380798     0.36800
C214        C  0.15672429  0.35103196  0.09356302     0.36800
N215        N  0.32324915  0.45017696  0.13357949    -0.38100
N216        N  0.13077925  0.33016621  0.09926879    -0.38100
N217        N  0.31763950  0.39901141  0.00863792    -0.37500
N218        N  0.12983052  0.41037423  0.19398868    -0.37500
C219        C  0.31494318  0.26584419  0.99499906    -0.04200
C220        C  0.31047787  0.29027208  0.45351200    -0.01300
C221        C  0.28418204  0.32166315  0.45721367     0.03700
C222        C  0.25225499  0.32477471  0.99577583    -0.04200
C223        C  0.25642830  0.29654136  0.03659416    -0.01300
C224        C  0.28541793  0.26727964  0.03502634     0.03700
C225        C  0.32910139  0.28619293  0.40260338     0.38300
C226        C  0.23035813  0.29574475  0.08160328     0.38300
C227        C  0.28431153  0.23933309  0.07751119     0.36800
C228        C  0.29299510  0.35381005  0.42216272     0.36800
N229        N  0.28044569  0.21856596  0.11278689    -0.38100
N230        N  0.30207794  0.37865528  0.39398747    -0.38100
N231        N  0.21159568  0.29252986  0.11920452    -0.37500
N232        N  0.34247069  0.28424697  0.36099528    -0.37500
C233        C  0.43279462  0.24764515  0.12935891    -0.04200
C234        C  0.40019729  0.27108619  0.12761898    -0.01300
C235        C  0.37520024  0.27010981  0.08444469     0.03700
C236        C  0.37863154  0.24081855  0.04474561    -0.04200
C237        C  0.41291159  0.21736392  0.04812022    -0.01300
C238        C  0.43978080  0.22197448  0.08838881     0.03700
C239        C  0.39186383  0.29617174  0.17144842     0.38300
C240        C  0.42083712  0.18566539  0.01325782     0.38300
C241        C  0.47522333  0.19966911  0.08754832     0.36800
C242        C  0.34960243  0.30259083  0.08163293     0.36800
N243        N  0.50334031  0.18193270  0.08673801    -0.38100
N244        N  0.33087309  0.32997397  0.08263846    -0.38100
N245        N  0.43015094  0.15953821  0.98853909    -0.37500
N246        N  0.38505386  0.31587576  0.20648188    -0.37500
C247        C  0.37833028  0.23328276  0.44816566    -0.04200
C248        C  0.40369566  0.26631825  0.44151727    -0.01300
C249        C  0.43172095  0.26875376  0.40061052     0.03700
C250        C  0.43279998  0.24130191  0.36074448    -0.04200
C251        C  0.40743741  0.20970453  0.36446422    -0.01300
C252        C  0.38380943  0.20345147  0.40953337     0.03700
C253        C  0.40034623  0.30011919  0.47400324     0.38300
C254        C  0.40551628  0.18299058  0.32122832     0.38300
C255        C  0.37066871  0.16396661  0.41585285     0.36800
C256        C  0.46000981  0.29986411  0.40014118     0.36800
N257        N  0.36242690  0.13164195  0.41853216    -0.38100
N258        N  0.48258343  0.32454694  0.40002830    -0.38100
N259        N  0.40379096  0.16189924  0.28673375    -0.37500
N260        N  0.39958646  0.33109877  0.99608068    -0.37500
C261        C  0.77333928  0.65074328  0.46278703    -0.04200
C262        C  0.76669484  0.60985756  0.47104687    -0.01300
C263        C  0.76812820  0.58407746  0.42912316     0.03700
C264        C  0.76749609  0.59766670  0.37785471    -0.04200
C265        C  0.76566844  0.63744969  0.36824674    -0.01300
C266        C  0.76935471  0.66391262  0.40972106     0.03700
C267        C  0.75241643  0.59270845  0.51957455     0.38300
C268        C  0.76425467  0.65136456  0.31480468     0.38300
C269        C  0.77376675  0.70411545  0.39500606     0.36800
C270        C  0.76952056  0.54284297  0.43905877     0.36800
N271        N  0.77738647  0.73534218  0.37948838    -0.38100
N272        N  0.77094591  0.51016727  0.44759979    -0.38100
N273        N  0.76368977  0.66315523  0.27252674    -0.37500
N274        N  0.73947939  0.57733475  0.55620938    -0.37500
C275        C  0.78368742  0.65767253  0.06423654    -0.04200
C276        C  0.81521635  0.63248116  0.07714489    -0.01300
C277        C  0.81647738  0.61318453  0.12558402     0.03700
C278        C  0.78264709  0.60894598  0.15628083    -0.04200
C279        C  0.75160630  0.63343512  0.14595591    -0.01300
C280        C  0.75414412  0.66065155  0.10450351     0.03700
C281        C  0.84511276  0.62154807  0.03989770     0.38300
C282        C  0.71736889  0.63216125  0.17970940     0.38300
C283        C  0.72751897  0.69210638  0.10926002     0.36800
C284        C  0.85250943  0.59587935  0.14162599     0.36800
N285        N  0.70533801  0.71601886  0.11762859    -0.38100
N286        N  0.88134433  0.58238523  0.15412142    -0.38100
N287        N  0.69008863  0.63131752  0.20642786    -0.37500
N288        N  0.86961460  0.61008182  0.01314871    -0.37500
C289        C  0.68921787  0.77150273  0.00509341    -0.04200
C290        C  0.72947288  0.78085538  0.00819899    -0.01300
C291        C  0.75878967  0.75315648  0.99957432     0.03700
C292        C  0.75018233  0.71356400  0.50496411    -0.04200
C293        C  0.70988008  0.70404249  0.50614498    -0.01300
C294        C  0.68035036  0.73263628  0.50927708     0.03700
C295        C  0.74288060  0.81696772  0.02932231     0.38300
C296        C  0.69677753  0.66426698  0.50512573     0.38300
C297        C  0.64186187  0.71804032  0.52089196     0.36800
C298        C  0.79490512  0.76854938  0.97857991     0.36800
N299        N  0.61342633  0.70225296  0.53245403    -0.38100
N300        N  0.82277785  0.78142763  0.95971337    -0.38100
N301        N  0.68267075  0.63403861  0.50368572    -0.37500
N302        N  0.75425886  0.84471081  0.04850697    -0.37500
C303        C  0.57205472  0.79506221  0.13660042    -0.04200
C304        C  0.61172123  0.79116959  0.14571955    -0.01300
C305        C  0.63894513  0.79258001  0.10329421     0.03700
C306        C  0.62634560  0.79440171  0.05016088    -0.04200
C307        C  0.58567305  0.78758911  0.04414485    -0.01300
C308        C  0.55951375  0.79427277  0.08535073     0.03700
C309        C  0.62477313  0.79002268  0.19905923     0.38300
C310        C  0.56990763  0.76604364  0.00131518     0.38300
C311        C  0.51925420  0.79995175  0.07437663     0.36800
C312        C  0.67903310  0.79685277  0.11665251     0.36800
N313        N  0.48746298  0.80563751  0.06465748    -0.38100
N314        N  0.71003890  0.80045450  0.13174632    -0.38100
N315        N  0.55692433  0.74710842  0.47030977    -0.37500
N316        N  0.63552543  0.78951485  0.24142773    -0.37500
C317        C  0.57514042  0.79792954  0.36205650    -0.04200
C318        C  0.57535257  0.83006024  0.39518489    -0.01300
C319        C  0.59981004  0.83150448  0.43860520     0.03700
C320        C  0.62907524  0.80283844  0.44775618    -0.04200
C321        C  0.63198765  0.77362898  0.40807617    -0.01300
C322        C  0.60351735  0.76973190  0.36901943     0.03700
C323        C  0.54775191  0.86105345  0.38759427     0.38300
C324        C  0.66448976  0.74825091  0.40241093     0.38300
C325        C  0.60411182  0.73663949  0.33482137     0.36800
C326        C  0.59079916  0.86187540  0.47514653     0.36800
N327        N  0.60457848  0.71016078  0.30783786    -0.38100
N328        N  0.58004759  0.88703327  0.50067392    -0.38100
N329        N  0.68958462  0.72737522  0.39384218    -0.37500
N330        N  0.52581164  0.88562686  0.38201774    -0.37500
C331        C  0.35991513  0.79090261  0.45870767    -0.04200
C332        C  0.34683690  0.78950564  0.40552805    -0.01300
C333        C  0.37356181  0.78801390  0.36265707     0.03700
C334        C  0.41330408  0.79076722  0.37098754    -0.04200
C335        C  0.42631949  0.78856273  0.42201190    -0.01300
C336        C  0.40027015  0.78292321  0.46414042     0.03700
C337        C  0.30714505  0.79509207  0.39143253     0.38300
C338        C  0.46689469  0.79295705  0.43190191     0.38300
C339        C  0.41600653  0.76334526  0.50890262     0.36800
C340        C  0.35999677  0.78950606  0.30950612     0.36800
N341        N  0.42845510  0.75088331  0.04582413    -0.38100
N342        N  0.34850343  0.79162889  0.26760253    -0.38100
N343        N  0.49899345  0.79769641  0.44086601    -0.37500
N344        N  0.27697651  0.79974185  0.37409352    -0.37500
C345        C  0.40760416  0.80067459  0.14510122    -0.04200
C346        C  0.37775289  0.77339682  0.14071828    -0.01300
C347        C  0.34872939  0.77795126  0.10266234     0.03700
C348        C  0.35370216  0.80445379  0.05934395    -0.04200
C349        C  0.38390972  0.83291222  0.06641473    -0.01300
C350        C  0.40776985  0.83252546  0.11062728     0.03700
C351        C  0.37564938  0.74117763  0.17720447     0.38300
C352        C  0.39517093  0.86109905  0.02683326     0.38300
C353        C  0.43506217  0.86407367  0.11768529     0.36800
C354        C  0.31285533  0.75860087  0.11521464     0.36800
N355        N  0.45668471  0.88920346  0.12283236    -0.38100
N356        N  0.28509920  0.74326324  0.13039759    -0.38100
N357        N  0.40769530  0.88433313  0.99849139    -0.37500
N358        N  0.37384229  0.71546823  0.20619252    -0.37500
C359        C  0.29595574  0.77128558  0.00297142    -0.04200
C360        C  0.30340362  0.73124736  0.01109420    -0.01300
C361        C  0.27290703  0.70434477  0.02043285     0.03700
C362        C  0.23638223  0.70869639  0.99586841    -0.04200
C363        C  0.23450337  0.74553422  0.47260985    -0.01300
C364        C  0.25932580  0.77679383  0.48635326     0.03700
C365        C  0.34171228  0.71522266  0.01063297     0.38300
C366        C  0.20748524  0.75285793  0.43124322     0.38300
C367        C  0.24474312  0.81487505  0.47513145     0.36800
C368        C  0.28027308  0.67727444  0.06211292     0.36800
N369        N  0.23178800  0.84459857  0.46538899    -0.38100
N370        N  0.28865382  0.65782768  0.09695709    -0.38100
N371        N  0.18732795  0.76059890  0.39739100    -0.37500
N372        N  0.37021460  0.69816226  0.00926860    -0.37500
C373        C  0.20509842  0.64468936  0.03984461    -0.04200
C374        C  0.23318443  0.61387664  0.03838467    -0.01300
C375        C  0.23620909  0.58693536  0.08007475     0.03700
C376        C  0.21419751  0.59123594  0.12614433    -0.04200
C377        C  0.18652280  0.62030914  0.12839204    -0.01300
C378        C  0.17810358  0.64215755  0.08359983     0.03700
C379        C  0.26169779  0.61026694  0.99638227     0.38300
C380        C  0.16503517  0.62690125  0.17678581     0.38300
C381        C  0.13791854  0.65320667  0.08164572     0.36800
C382        C  0.26253243  0.55471857  0.07560156     0.36800
N383        N  0.10527434  0.65998991  0.08231569    -0.38100
N384        N  0.28343726  0.52904468  0.07190183    -0.38100
N385        N  0.14805495  0.63231127  0.21526681    -0.37500
N386        N  0.28537025  0.60651533  0.96443761    -0.37500
C387        C  0.20776565  0.64940424  0.44117429    -0.04200
C388        C  0.18256491  0.61628799  0.43700321    -0.01300
C389        C  0.18678792  0.58955284  0.39635111     0.03700
C390        C  0.21351732  0.59597011  0.35526506    -0.04200
C391        C  0.23730590  0.62888450  0.35634808    -0.01300
C392        C  0.23580495  0.65455668  0.39920825     0.03700
C393        C  0.15002681  0.60934706  0.47243192     0.38300
C394        C  0.26334751  0.63678237  0.31234913     0.38300
C395        C  0.26525274  0.68421840  0.39865608     0.36800
C396        C  0.16373117  0.55431846  0.39795407     0.36800
N397        N  0.29010797  0.70655980  0.39567436    -0.38100
N398        N  0.14543744  0.52633415  0.39951425    -0.38100
N399        N  0.28396784  0.64323811  0.27728416    -0.37500
N400        N  0.12193432  0.60064857  0.99832898    -0.37500
C401        C  0.29172697  0.92778759  0.01171073    -0.04200
C402        C  0.27861991  0.89997953  0.04829883    -0.01300
C403        C  0.29002587  0.86091028  0.04453034     0.03700
C404        C  0.31428028  0.84715742  0.00236337    -0.04200
C405        C  0.32800007  0.87482436  0.46628108    -0.01300
C406        C  0.31620870  0.91381243  0.47118495     0.03700
C407        C  0.25057488  0.91082703  0.08842232     0.38300
C408        C  0.35475847  0.86909036  0.42315077     0.38300
C409        C  0.33128306  0.94317541  0.43501846     0.36800
C410        C  0.27209725  0.83487244  0.08236874     0.36800
N411        N  0.34342816  0.96645761  0.40647108    -0.38100
N412        N  0.25444837  0.81722064  0.11306709    -0.38100
N413        N  0.37659085  0.86938722  0.38843087    -0.37500
N414        N  0.22799739  0.91906794  0.12012913    -0.37500
C415        C  0.29219297  0.11688252  0.00279461    -0.04200
C416        C  0.28111978  0.14203828  0.46724697    -0.01300
C417        C  0.29928878  0.17886024  0.46603850     0.03700
C418        C  0.32752641  0.19318561  0.00292474    -0.04200
C419        C  0.33304273  0.16532576  0.04461794    -0.01300
C420        C  0.31791697  0.12731365  0.04190348     0.03700
C421        C  0.25193739  0.13331996  0.42914826     0.38300
C422        C  0.34973814  0.17475879  0.09435424     0.38300
C423        C  0.32868249  0.09866045  0.08061957     0.36800
C424        C  0.29118390  0.20283503  0.42106095     0.36800
N425        N  0.33724520  0.07599783  0.11156722    -0.38100
N426        N  0.28314439  0.21905052  0.38325290    -0.38100
N427        N  0.36187726  0.18075267  0.13521386    -0.37500
N428        N  0.22887506  0.12673249  0.39848436    -0.37500
C429        C  0.91388129  0.31134508  0.99354413    -0.04200
C430        C  0.88550936  0.30300407  0.45455509    -0.01300
C431        C  0.84836848  0.31888276  0.46201992     0.03700
C432        C  0.83808333  0.34421099  0.00886775    -0.04200
C433        C  0.86931043  0.35136688  0.04429930    -0.01300
C434        C  0.90684088  0.33729927  0.03397289     0.03700
C435        C  0.89204438  0.27551896  0.41299702     0.38300
C436        C  0.86487094  0.36978683  0.09446392     0.38300
C437        C  0.93889582  0.34940663  0.06593836     0.36800
C438        C  0.81950217  0.30855361  0.42412484     0.36800
N439        N  0.96438744  0.35902094  0.09125088    -0.38100
N440        N  0.79736085  0.29988095  0.39318064    -0.38100
N441        N  0.86371410  0.38376041  0.13523449    -0.37500
N442        N  0.89704092  0.25374027  0.37976220    -0.37500
C443        C  0.17488642  0.33527434  0.99010440    -0.04200
C444        C  0.16841555  0.29434480  0.98962639    -0.01300
C445        C  0.13116938  0.27860476  0.99722736     0.03700
C446        C  0.09829007  0.30109006  0.99038427    -0.04200
C447        C  0.10520261  0.34027233  0.47990193    -0.01300
C448        C  0.14236831  0.35750082  0.48380746     0.03700
C449        C  0.19720291  0.26651819  0.97469418     0.38300
C450        C  0.07149950  0.36344721  0.46922689     0.38300
C451        C  0.14274374  0.39914524  0.48355276     0.36800
C452        C  0.12747596  0.23886994  0.01438982     0.36800
N453        N  0.13925117  0.43223553  0.48271553    -0.38100
N454        N  0.12697261  0.20759708  0.03009194    -0.38100
N455        N  0.04461646  0.38179088  0.46057936    -0.37500
N456        N  0.21802055  0.24233520  0.96217893    -0.37500
C457        C  0.07424133  0.14767558  0.99066895    -0.04200
C458        C  0.09501798  0.13548304  0.44009984    -0.01300
C459        C  0.12378806  0.10720322  0.44335432     0.03700
C460        C  0.13642232  0.09500773  0.99702480    -0.04200
C461        C  0.11372532  0.10364691  0.04196541    -0.01300
C462        C  0.08205550  0.12851497  0.03832072     0.03700
C463        C  0.08674822  0.15204958  0.38937959     0.38300
C464        C  0.12227062  0.08725068  0.09270920     0.38300
C465        C  0.05754940  0.13398250  0.08427020     0.36800
C466        C  0.13984055  0.09209727  0.39505294     0.36800
N467        N  0.03816157  0.13819354  0.12097648    -0.38100
N468        N  0.15210942  0.07993416  0.35636293    -0.38100
N469        N  0.12882189  0.07476733  0.13353306    -0.37500
N470        N  0.08055339  0.16511649  0.34876436    -0.37500
C471        C  0.67223724  0.84696900  0.00134257    -0.04200
C472        C  0.66571273  0.87591112  0.04096809    -0.01300
C473        C  0.68372754  0.91291414  0.03776755     0.03700
C474        C  0.70363198  0.92556685  0.99217588    -0.04200
C475        C  0.70933017  0.89887077  0.44893978    -0.01300
C476        C  0.69298425  0.86126998  0.45308276     0.03700
C477        C  0.63732874  0.87237611  0.08289280     0.38300
C478        C  0.73404450  0.90826914  0.40405592     0.38300
C479        C  0.70257454  0.83514284  0.41102059     0.36800
C480        C  0.67942804  0.93911678  0.08142803     0.36800
N481        N  0.71194848  0.81619983  0.37625141    -0.38100
N482        N  0.67587642  0.95965277  0.11639323    -0.38100
N483        N  0.75382619  0.91539756  0.36834260    -0.37500
N484        N  0.61450746  0.87374833  0.11635658    -0.37500
C485        C  0.68284618  0.19495806  0.99322179    -0.04200
C486        C  0.67275652  0.16657081  0.03344512    -0.01300
C487        C  0.68602290  0.12783345  0.03105045     0.03700
C488        C  0.70733391  0.11436707  0.48182250    -0.04200
C489        C  0.71614449  0.14125272  0.44170882    -0.01300
C490        C  0.70482811  0.18034742  0.44569057     0.03700
C491        C  0.64516685  0.17288882  0.07553956     0.38300
C492        C  0.73945841  0.12955024  0.39689763     0.38300
C493        C  0.71907474  0.20588610  0.40438434     0.36800
C494        C  0.67630109  0.10096024  0.07337433     0.36800
N495        N  0.73242523  0.22378133  0.37021411    -0.38100
N496        N  0.66853091  0.07979027  0.10714539    -0.38100
N497        N  0.75809326  0.12053990  0.36120411    -0.37500
N498        N  0.62246188  0.17387096  0.10919628    -0.37500
C499        C  0.85492290  0.10364014  0.98967550    -0.04200
C500        C  0.87768558  0.11240072  0.43607586    -0.01300
C501        C  0.90726645  0.14044723  0.43618371     0.03700
C502        C  0.91459811  0.15976576  0.99133099    -0.04200
C503        C  0.88674554  0.15767404  0.03233578    -0.01300
C504        C  0.85697205  0.12992050  0.03136673     0.03700
C505        C  0.87149656  0.09130576  0.38832554     0.38300
C506        C  0.88832167  0.18414811  0.07562970     0.38300
C507        C  0.82785583  0.12940365  0.07290042     0.36800
C508        C  0.93145915  0.14546964  0.38968820     0.36800
N509        N  0.80469207  0.12911263  0.10597725    -0.38100
N510        N  0.95052552  0.14938210  0.35242218    -0.38100
N511        N  0.88975417  0.20492907  0.11052074    -0.37500
N512        N  0.86661064  0.07510665  0.34983747    -0.37500
C513        C  0.90443577  0.72869372  0.50683808    -0.04200
C514        C  0.89142033  0.70886819  0.46284787    -0.01300
C515        C  0.85435064  0.69100037  0.46280649     0.03700
C516        C  0.82597630  0.69800348  0.50397853    -0.04200
C517        C  0.83953005  0.72066044  0.05241144    -0.01300
C518        C  0.87826144  0.73284718  0.05829602     0.03700
C519        C  0.91757139  0.70404806  0.41829791     0.38300
C520        C  0.81235745  0.73305492  0.09253359     0.38300
C521        C  0.88999740  0.74821336  0.10811581     0.36800
C522        C  0.85002157  0.66251076  0.42250334     0.36800
N523        N  0.89901750  0.76035161  0.14792604    -0.38100
N524        N  0.85023790  0.63960323  0.39005210    -0.38100
N525        N  0.79249216  0.74484006  0.12533318    -0.37500
N526        N  0.93817977  0.70005185  0.38276031    -0.37500
C527        C  0.16252126  0.69843602  0.99533250    -0.04200
C528        C  0.15480857  0.72529886  0.03663290    -0.01300
C529        C  0.11873730  0.74408614  0.04156167     0.03700
C530        C  0.08784526  0.73417861  0.00912069    -0.04200
C531        C  0.09812218  0.70887665  0.45958534    -0.01300
C532        C  0.13607183  0.69569158  0.45138962     0.03700
C533        C  0.18250686  0.73189700  0.07726876     0.38300
C534        C  0.06817008  0.69711175  0.42407393     0.38300
C535        C  0.14546977  0.68534877  0.39790756     0.36800
C536        C  0.11390690  0.77421863  0.07991772     0.36800
N537        N  0.15181699  0.67802531  0.35467546    -0.38100
N538        N  0.11036242  0.79842585  0.11023912    -0.38100
N539        N  0.04442306  0.68764271  0.39578511    -0.37500
N540        N  0.20359984  0.73713798  0.11080660    -0.37500
C541        C  0.91736488  0.88853521  0.01414619    -0.04200
C542        C  0.87841253  0.87770513  0.01243996    -0.01300
C543        C  0.85090433  0.90403144  0.99580216     0.03700
C544        C  0.85629763  0.93957166  0.49188280    -0.04200
C545        C  0.85386778  0.91070026  0.53113679    -0.01300
C546        C  0.88252135  0.88236507  0.53435151     0.03700
C547        C  0.86555005  0.84118453  0.03341703     0.38300
C548        C  0.82164215  0.90966758  0.56820495     0.38300
C549        C  0.87834879  0.85212027  0.57339886     0.36800
C550        C  0.81511578  0.88997901  0.97535803     0.36800
N551        N  0.87423523  0.82854821  0.60517376    -0.38100
N552        N  0.78802521  0.87782171  0.95578946    -0.38100
N553        N  0.79622341  0.90909212  0.59812679    -0.37500
N554        N  0.85354170  0.81358640  0.05328672    -0.37500
C555        C  0.07891037  0.88302881  0.49860959    -0.04200
C556        C  0.08549305  0.91070564  0.05296624    -0.01300
C557        C  0.11593906  0.93770484  0.05231002     0.03700
C558        C  0.14367973  0.93822085  0.01091910    -0.04200
C559        C  0.14081957  0.90702298  0.46377289    -0.01300
C560        C  0.11125223  0.87897689  0.46477243     0.03700
C561        C  0.05630376  0.91239393  0.09430134     0.38300
C562        C  0.17219048  0.90413747  0.42581366     0.38300
C563        C  0.11496988  0.84514159  0.43241058     0.36800
C564        C  0.11761409  0.96550897  0.09407318     0.36800
N565        N  0.11784700  0.81801650  0.40689360    -0.38100
N566        N  0.11875712  0.98719326  0.12791702    -0.38100
N567        N  0.19683506  0.90231053  0.39488109    -0.37500
N568        N  0.03312510  0.91387630  0.12728339    -0.37500
O569        O  0.03372069  0.84141960  0.54259929    -0.70600
O570        O  0.95726573  0.76293703  0.54630050    -0.70800
O571        O  0.03611937  0.76518062  0.54482642    -0.70700
O572        O  0.95637291  0.83974657  0.54368864    -0.70700
O573        O  0.95974583  0.84508450  0.97288290    -0.70700
O574        O  0.03473552  0.76667768  0.97069078    -0.70700
O575        O  0.95595210  0.76827244  0.97306534    -0.70600
O576        O  0.03663944  0.84280299  0.97134024    -0.70800
V577        V  0.99579032  0.80202271  0.54278206     1.35200
V578        V  0.99665007  0.80539122  0.97369022     1.35200
C579        C  0.05038064  0.85492252  0.01339180     0.78600
C580        C  0.94122804  0.75569433  0.01556607     0.78700
C581        C  0.05146459  0.75424058  0.50239644     0.78500
C582        C  0.94400430  0.85263945  0.50093942     0.78500
O583        O  0.81116804  0.06087057  0.94770479    -0.70600
O584        O  0.73873413  0.97823468  0.94837431    -0.70800
O585        O  0.73493583  0.05743067  0.94727109    -0.70700
O586        O  0.81603537  0.98405797  0.94851472    -0.70700
O587        O  0.81203588  0.98339711  0.53004987    -0.70700
O588        O  0.73565848  0.06015528  0.52547333    -0.70700
O589        O  0.73579453  0.98068691  0.52899441    -0.70600
O590        O  0.81182228  0.05998887  0.52573908    -0.70800
V591        V  0.77481524  0.01998733  0.94951790     1.35200
V592        V  0.77340891  0.02098414  0.52591537     1.35200
C593        C  0.82527228  0.07324130  0.48303863     0.78600
C594        C  0.72579366  0.96419926  0.48747900     0.78700
C595        C  0.72554354  0.07481255  0.98873596     0.78500
C596        C  0.82820101  0.97115542  0.99131089     0.78500
O597        O  0.03455370  0.19478239  0.94817572    -0.70600
O598        O  0.96663839  0.27973976  0.94965835    -0.70800
O599        O  0.04517496  0.27123824  0.94816418    -0.70700
O600        O  0.95860093  0.20388596  0.94946819    -0.70700
O601        O  0.96144270  0.20000326  0.52527538    -0.70700
O602        O  0.04339603  0.27287622  0.52929202    -0.70700
O603        O  0.96465780  0.27610332  0.52827909    -0.70600
O604        O  0.03786423  0.19688098  0.52635831    -0.70800
V605        V  0.00139201  0.23777952  0.95039770     1.35200
V606        V  0.00190111  0.23688174  0.52568803     1.35200
C607        C  0.04842154  0.18123143  0.48443011     0.78600
C608        C  0.95222901  0.29019287  0.48637114     0.78700
C609        C  0.06146689  0.28218865  0.48771879     0.78500
C610        C  0.94587691  0.18915642  0.99164307     0.78500
O611        O  0.18096353  0.05485440  0.54037466    -0.70600
O612        O  0.26054488  0.98113334  0.54976614    -0.70800
O613        O  0.25737989  0.06038847  0.54673205    -0.70700
O614        O  0.18386747  0.97859990  0.54355117    -0.70700
O615        O  0.18844369  0.98067504  0.96590411    -0.70700
O616        O  0.26376078  0.06093401  0.96245874    -0.70700
O617        O  0.26473960  0.98172950  0.96716293    -0.70600
O618        O  0.18715999  0.05674774  0.96039491    -0.70800
V619        V  0.22127019  0.01876197  0.54359312     1.35200
V620        V  0.22651986  0.02015944  0.96561871     1.35200
C621        C  0.17073947  0.06931639  0.00088403     0.78600
C622        C  0.27402180  0.96711642  0.01035461     0.78700
C623        C  0.27103716  0.07500140  0.50479398     0.78500
C624        C  0.17171978  0.96637614  0.50059769     0.78500
C625        C  0.20426776  0.67560428  0.49200224    -0.01300
C626        C  0.33200412  0.80169487  0.50707926    -0.01300
O627        O  0.53397913  0.76279085  0.70307386    -0.70600
O628        O  0.45377280  0.76034802  0.80651732    -0.70800
O629        O  0.45557759  0.76244836  0.70116074    -0.70700
O630        O  0.53199194  0.76230054  0.80827113    -0.70700
O631        O  0.53461547  0.82437931  0.80143291    -0.70700
O632        O  0.45208005  0.82432765  0.70869609    -0.70700
O633        O  0.45714132  0.82259925  0.81234443    -0.70600
O634        O  0.52969653  0.82505219  0.69813188    -0.70800
V635        V  0.49381586  0.76298178  0.75473781     1.35200
V636        V  0.49336674  0.82283639  0.75515416     1.35200
C637        C  0.54513593  0.79421661  0.68245925     0.78600
C638        C  0.44233375  0.79094849  0.82779164     0.78700
C639        C  0.44038951  0.79406760  0.68726359     0.78500
C640        C  0.54677698  0.79401759  0.82244689     0.78500
C641        C  0.65402004  0.80488889  0.50029455    -0.01300
C642        C  0.78458264  0.68009341  0.00916266    -0.01300
C643        C  0.34933807  0.23418623  0.99744195    -0.01300
C644        C  0.21870370  0.35400837  0.49729961    -0.01300
O645        O  0.24876292  0.55268497  0.68708575    -0.70600
O646        O  0.25364913  0.48088294  0.79955095    -0.70800
O647        O  0.25424402  0.47526166  0.69540653    -0.70700
O648        O  0.24775765  0.55775797  0.79255307    -0.70700
O649        O  0.18556185  0.55108594  0.79507799    -0.70700
O650        O  0.19208313  0.47232134  0.69446354    -0.70700
O651        O  0.19131602  0.47413243  0.79835270    -0.70600
O652        O  0.18630053  0.54886527  0.69048485    -0.70800
V653        V  0.24997532  0.51667765  0.74351744     1.35200
V654        V  0.19007338  0.51179846  0.74456748     1.35200
C655        C  0.21655643  0.56307853  0.66968306     0.78600
C656        C  0.22326161  0.46497515  0.81743060     0.78700
C657        C  0.22406780  0.45919507  0.67869720     0.78500
C658        C  0.21540928  0.56749599  0.81194080     0.78500
O659        O  0.47346957  0.28073433  0.69019666    -0.70600
O660        O  0.54904499  0.28160760  0.79697521    -0.70800
O661        O  0.55074870  0.28566118  0.69236890    -0.70700
O662        O  0.47139165  0.27810303  0.79576577    -0.70700
O663        O  0.47693134  0.21601858  0.79668760    -0.70700
O664        O  0.55129406  0.22329028  0.68598008    -0.70700
O665        O  0.55392909  0.21969038  0.78899678    -0.70600
O666        O  0.47434282  0.21829664  0.69193555    -0.70800
V667        V  0.51113864  0.28043308  0.74379110     1.35200
V668        V  0.51396148  0.22057662  0.74101317     1.35200
C669        C  0.46147957  0.24893996  0.67245973     0.78600
C670        C  0.56451829  0.25022447  0.81061907     0.78700
C671        C  0.56403359  0.25585597  0.67118835     0.78500
C672        C  0.46133556  0.24593868  0.81522530     0.78500
C673        C  0.66994766  0.23916903  0.48975391    -0.01300
C674        C  0.79733619  0.36308230  0.50933214    -0.01300
O675        O  0.80541952  0.47856583  0.80949096    -0.70600
O676        O  0.81080231  0.56246254  0.71464079    -0.70800
O677        O  0.80594117  0.55558157  0.81809047    -0.70700
O678        O  0.81060129  0.48545264  0.70564312    -0.70700
O679        O  0.74802714  0.48319204  0.70392559    -0.70700
O680        O  0.74357430  0.55762511  0.81235282    -0.70700
O681        O  0.74875321  0.56105202  0.70767740    -0.70600
O682        O  0.74300689  0.47943712  0.80854073    -0.70800
V683        V  0.80691032  0.52044605  0.76189363     1.35200
V684        V  0.74695007  0.52037076  0.75824350     1.35200
C685        C  0.77355863  0.46446760  0.82547872     0.78600
C686        C  0.78090857  0.57608963  0.69438473     0.78700
C687        C  0.77412022  0.56922244  0.83353980     0.78500
C688        C  0.78025921  0.47196678  0.68613132     0.78500
C689        C  0.78306984  0.44444790  0.64227795    -0.04200
C690        C  0.79714986  0.45739769  0.59371238    -0.01300
C691        C  0.80485158  0.43142018  0.55301462     0.03700
C692        C  0.79434113  0.39129145  0.55772944    -0.04200
C693        C  0.78421070  0.37829222  0.60974094    -0.01300
C694        C  0.77699546  0.40485649  0.65047076     0.03700
C695        C  0.80436303  0.49812303  0.58521215     0.38300
C696        C  0.78391846  0.33793875  0.62442816     0.38300
C697        C  0.76416913  0.39127068  0.70171923     0.36800
C698        C  0.82752371  0.44705384  0.50957332     0.36800
N699        N  0.75375797  0.38036959  0.74241214    -0.38100
N700        N  0.84576251  0.46269953  0.47747243    -0.38100
N701        N  0.78307002  0.30657201  0.63998713    -0.37500
N702        N  0.81046676  0.53025232  0.57642772    -0.37500
C703        C  0.78886322  0.38884725  0.96005040     0.00600
C704        C  0.75474246  0.41207450  0.95419779    -0.01300
C705        C  0.74624737  0.43118909  0.90655224     0.03700
C706        C  0.77343793  0.43253361  0.86533383    -0.04200
C707        C  0.80612436  0.40938293  0.86884803    -0.01300
C708        C  0.81645502  0.39292078  0.91689985     0.03700
C709        C  0.73401343  0.42730232  0.99878048     0.38300
C710        C  0.83091966  0.40421554  0.82299678     0.38300
C711        C  0.85799895  0.39000550  0.92229745     0.36800
C712        C  0.71055962  0.45256923  0.90198132     0.36800
N713        N  0.89128875  0.38913931  0.92466966    -0.38100
N714        N  0.68208989  0.46949008  0.89859523    -0.38100
N715        N  0.85054191  0.39997785  0.78652983    -0.37500
N716        N  0.71784048  0.44315570  0.03202073    -0.37500
C717        C  0.76541378  0.32852441  0.51485971    -0.04200
C718        C  0.72540504  0.33581962  0.51870781    -0.01300
C719        C  0.69794106  0.30987249  0.49933241     0.03700
C720        C  0.70565524  0.26945290  0.49390410    -0.04200
C721        C  0.74403387  0.26058551  0.00727055    -0.01300
C722        C  0.77152066  0.28940821  0.02167487     0.03700
C723        C  0.71055865  0.35763154  0.56241834     0.38300
C724        C  0.75797420  0.22139389  0.01066041     0.38300
C725        C  0.80536233  0.27640469  0.04943717     0.36800
C726        C  0.66143058  0.32756177  0.48751141     0.36800
N727        N  0.83178817  0.26548214  0.07192882    -0.38100
N728        N  0.63463961  0.34568979  0.47770621    -0.38100
N729        N  0.77139362  0.19113703  0.01491738    -0.37500
N730        N  0.69698570  0.37318081  0.59794435    -0.37500
C731        C  0.59276532  0.24748019  0.85313628    -0.04200
C732        C  0.58766041  0.21833169  0.89090205    -0.01300
C733        C  0.61313271  0.21495775  0.93273783     0.03700
C734        C  0.64541215  0.24113797  0.93844485    -0.04200
C735        C  0.65243068  0.26749167  0.89528826    -0.01300
C736        C  0.62499623  0.27197924  0.85535317     0.03700
C737        C  0.55326013  0.19384662  0.88995110     0.38300
C738        C  0.68763589  0.28973548  0.88829051     0.38300
C739        C  0.62999203  0.30211006  0.81604867     0.36800
C740        C  0.60145034  0.18667522  0.97201691     0.36800
N741        N  0.63388776  0.32625179  0.78494893    -0.38100
N742        N  0.58830322  0.16334892  0.99968822    -0.38100
N743        N  0.71491730  0.30839781  0.88032422    -0.37500
N744        N  0.52594361  0.17454024  0.88962720    -0.37500
C745        C  0.59179126  0.25909839  0.62722451    -0.04200
C746        C  0.57811549  0.26681983  0.57762325    -0.01300
C747        C  0.60279179  0.26414605  0.53349558     0.03700
C748        C  0.64221821  0.25053079  0.53809440    -0.04200
C749        C  0.65663449  0.25053570  0.59057569    -0.01300
C750        C  0.63128490  0.25405761  0.63425745     0.03700
C751        C  0.53822417  0.27901690  0.57223257     0.38300
C752        C  0.69634781  0.24190566  0.60237447     0.38300
C753        C  0.64546498  0.24947122  0.68683406     0.36800
C754        C  0.58617565  0.27967821  0.48633199     0.36800
N755        N  0.65714602  0.24533803  0.72840188    -0.38100
N756        N  0.57070594  0.29333958  0.45119070    -0.38100
N757        N  0.72707700  0.23479960  0.61612641    -0.37500
N758        N  0.50688904  0.28942278  0.56727599    -0.37500
C759        C  0.22450289  0.43732406  0.86133108    -0.04200
C760        C  0.23157841  0.45077381  0.91128692    -0.01300
C761        C  0.22459056  0.42685280  0.95521027     0.03700
C762        C  0.21908651  0.38563213  0.94974019    -0.04200
C763        C  0.21324851  0.37269477  0.89712125    -0.01300
C764        C  0.21487361  0.39859523  0.85422630     0.03700
C765        C  0.24397983  0.49054643  0.91782206     0.38300
C766        C  0.20783334  0.33240938  0.88472939     0.38300
C767        C  0.20937495  0.38472645  0.80165955     0.36800
C768        C  0.21608862  0.44816072  0.00232908     0.36800
N769        N  0.20547371  0.37324643  0.75994183    -0.38100
N770        N  0.20824114  0.46761897  0.03726456    -0.38100
N771        N  0.20387202  0.30104401  0.87102362    -0.37500
N772        N  0.25426139  0.52195921  0.92333856    -0.37500
C773        C  0.22538838  0.42625791  0.64072776    -0.04200
C774        C  0.19206471  0.40376022  0.63203403    -0.01300
C775        C  0.19099858  0.37681032  0.59102816     0.03700
C776        C  0.22188448  0.37483689  0.55258143    -0.04200
C777        C  0.25727100  0.39364981  0.56697827    -0.01300
C778        C  0.25903790  0.41784790  0.61122758     0.03700
C779        C  0.15832385  0.40727698  0.66636178     0.38300
C780        C  0.29132303  0.39383575  0.53330302     0.38300
C781        C  0.29538961  0.43646413  0.62335450     0.36800
C782        C  0.15869270  0.35003796  0.59373802     0.36800
N783        N  0.32447131  0.45113255  0.63265055    -0.38100
N784        N  0.13267809  0.32923782  0.59927416    -0.38100
N785        N  0.31991563  0.39647743  0.50948312    -0.37500
N786        N  0.13136380  0.40982648  0.69338996    -0.37500
C787        C  0.31525227  0.26276087  0.49531424    -0.04200
C788        C  0.30969373  0.29321006  0.95320126    -0.01300
C789        C  0.28273822  0.32400489  0.95676711     0.03700
C790        C  0.25376301  0.32295635  0.49618942    -0.04200
C791        C  0.25710188  0.29424828  0.53662982    -0.01300
C792        C  0.28564805  0.26452632  0.53512907     0.03700
C793        C  0.32838131  0.28941700  0.90227696     0.38300
C794        C  0.23043674  0.29321558  0.58096324     0.38300
C795        C  0.28444912  0.23679297  0.57788086     0.36800
C796        C  0.29126710  0.35629532  0.92181850     0.36800
N797        N  0.28076760  0.21628556  0.61346222    -0.38100
N798        N  0.30031216  0.38121996  0.89375257    -0.38100
N799        N  0.21106987  0.28940767  0.61791157    -0.37500
N800        N  0.34166375  0.28763760  0.86060355    -0.37500
C801        C  0.43401667  0.24668603  0.62849274    -0.04200
C802        C  0.40133728  0.26996143  0.62682480    -0.01300
C803        C  0.37551636  0.26779789  0.58464893     0.03700
C804        C  0.37855696  0.23779324  0.54581989    -0.04200
C805        C  0.41285585  0.21441761  0.54934893    -0.01300
C806        C  0.44055312  0.22032580  0.58822299     0.03700
C807        C  0.39412108  0.29656741  0.66934050     0.38300
C808        C  0.41974053  0.18133834  0.51649931     0.38300
C809        C  0.47659039  0.19902023  0.58631442     0.36800
C810        C  0.34943227  0.29986824  0.58191810     0.36800
N811        N  0.50529629  0.18226668  0.58445316    -0.38100
N812        N  0.33046594  0.32707556  0.58314933    -0.38100
N813        N  0.42788980  0.15391596  0.49370576    -0.37500
N814        N  0.38829358  0.31764741  0.70316987    -0.37500
C815        C  0.37775895  0.23634357  0.94681291    -0.04200
C816        C  0.40329649  0.26916455  0.93982272    -0.01300
C817        C  0.43124108  0.27124621  0.89873628     0.03700
C818        C  0.43231260  0.24337685  0.85932658    -0.04200
C819        C  0.40653141  0.21216138  0.86316643    -0.01300
C820        C  0.38280987  0.20636669  0.90821051     0.03700
C821        C  0.40040776  0.30286608  0.97258803     0.38300
C822        C  0.40455606  0.18512121  0.82027933     0.38300
C823        C  0.36967147  0.16689766  0.91484484     0.36800
C824        C  0.45953429  0.30233740  0.89773949     0.36800
N825        N  0.36157964  0.13454312  0.91763653    -0.38100
N826        N  0.48210601  0.32702724  0.89721521    -0.38100
N827        N  0.40284204  0.16369263  0.78616702    -0.37500
N828        N  0.39924965  0.32857353  0.49698846    -0.37500
C829        C  0.77729659  0.65014276  0.96292077    -0.04200
C830        C  0.77152929  0.60901984  0.97059484    -0.01300
C831        C  0.77379415  0.58339374  0.92837884     0.03700
C832        C  0.77286286  0.59703874  0.87710075    -0.04200
C833        C  0.77151082  0.63686251  0.86781373    -0.01300
C834        C  0.77445957  0.66324497  0.90960144     0.03700
C835        C  0.75750671  0.59116985  0.01879543     0.38300
C836        C  0.77104784  0.65090024  0.81435348     0.38300
C837        C  0.77859686  0.70343141  0.89492622     0.36800
C838        C  0.77674853  0.54222002  0.93807757     0.36800
N839        N  0.78201528  0.73446372  0.87864397    -0.38100
N840        N  0.77970239  0.50964350  0.94652396    -0.38100
N841        N  0.77131952  0.66270695  0.77204944    -0.37500
N842        N  0.74521963  0.57498434  0.05518901    -0.37500
C843        C  0.78346497  0.65777522  0.56326311    -0.04200
C844        C  0.81455800  0.63140525  0.57370545    -0.01300
C845        C  0.81668884  0.61117649  0.62146708     0.03700
C846        C  0.78385421  0.60778313  0.65430139    -0.04200
C847        C  0.75345517  0.63372685  0.64648007    -0.01300
C848        C  0.75550655  0.66138072  0.60536178     0.03700
C849        C  0.84311220  0.62045821  0.53458269     0.38300
C850        C  0.72035723  0.63325496  0.68217662     0.38300
C851        C  0.73031198  0.69393618  0.61182365     0.36800
C852        C  0.85232715  0.59167774  0.63432483     0.36800
N853        N  0.70980730  0.71919903  0.62088120    -0.38100
N854        N  0.88084359  0.57637954  0.64415846    -0.38100
N855        N  0.69392557  0.63300155  0.71042982    -0.37500
N856        N  0.86662011  0.60899745  0.50624203    -0.37500
C857        C  0.68831834  0.77317987  0.50414794    -0.04200
C858        C  0.72881759  0.78235746  0.50551525    -0.01300
C859        C  0.75801463  0.75408317  0.49875372     0.03700
C860        C  0.75140550  0.71257066  0.00418122    -0.04200
C861        C  0.71127571  0.70253844  0.00312869    -0.01300
C862        C  0.68137745  0.73081496  0.00671573     0.03700
C863        C  0.74307754  0.81977195  0.52108545     0.38300
C864        C  0.69902974  0.66259164  0.99982663     0.38300
C865        C  0.64261720  0.71582708  0.01448778     0.36800
C866        C  0.79507908  0.76910229  0.48003864     0.36800
N867        N  0.61377694  0.69967442  0.02234506    -0.38100
N868        N  0.82372996  0.78260553  0.46445212    -0.38100
N869        N  0.68640499  0.63182700  0.99651574    -0.37500
N870        N  0.75608874  0.84879176  0.53407449    -0.37500
C871        C  0.57355134  0.79431214  0.63821193    -0.04200
C872        C  0.61359616  0.79312355  0.64580946    -0.01300
C873        C  0.63982455  0.79560935  0.60230533     0.03700
C874        C  0.62605316  0.79648397  0.54965220    -0.04200
C875        C  0.58558071  0.78798842  0.54504674    -0.01300
C876        C  0.56005249  0.79272607  0.58745702     0.03700
C877        C  0.62779520  0.79286047  0.69858874     0.38300
C878        C  0.56978263  0.76640615  0.50219071     0.38300
C879        C  0.51930435  0.79535015  0.57807116     0.36800
C880        C  0.68012114  0.80152081  0.61367608     0.36800
N881        N  0.48708585  0.79830634  0.56888847    -0.38100
N882        N  0.71156627  0.80659920  0.62629306    -0.38100
N883        N  0.55687442  0.74708024  0.96920107    -0.37500
N884        N  0.63933443  0.79290551  0.74056967    -0.37500
C885        C  0.57672431  0.79703835  0.86387566    -0.04200
C886        C  0.57691716  0.82919964  0.89696320    -0.01300
C887        C  0.60182753  0.83091818  0.93981701     0.03700
C888        C  0.63097957  0.80212882  0.94874345    -0.04200
C889        C  0.63444276  0.77353572  0.90835742    -0.01300
C890        C  0.60574754  0.76936573  0.86979288     0.03700
C891        C  0.54906763  0.85999941  0.88980300     0.38300
C892        C  0.66805490  0.74980941  0.90080592     0.38300
C893        C  0.60691673  0.73668956  0.83488185     0.36800
C894        C  0.59369961  0.86182147  0.97595318     0.36800
N895        N  0.60788619  0.71049612  0.80741172    -0.38100
N896        N  0.58409966  0.88743965  0.00145329    -0.38100
N897        N  0.69414060  0.73043915  0.89102464    -0.37500
N898        N  0.52695098  0.88445558  0.88458095    -0.37500
C899        C  0.35908324  0.79275459  0.95810160    -0.04200
C900        C  0.34657270  0.79019736  0.90481726    -0.01300
C901        C  0.37371508  0.78720805  0.86255873     0.03700
C902        C  0.41344458  0.78938366  0.87150459    -0.04200
C903        C  0.42591441  0.78891096  0.92281643    -0.01300
C904        C  0.39946004  0.78490567  0.96476746     0.03700
C905        C  0.30700819  0.79625071  0.89016668     0.38300
C906        C  0.46645114  0.79339883  0.93309557     0.38300
C907        C  0.41497523  0.76684043  0.01089803     0.36800
C908        C  0.36071950  0.78752752  0.80914690     0.36800
N909        N  0.42973787  0.74640078  0.54277623    -0.38100
N910        N  0.34984680  0.78866400  0.76686502    -0.38100
N911        N  0.49853029  0.79821652  0.94213516    -0.37500
N912        N  0.27678670  0.80138898  0.87323535    -0.37500
C913        C  0.41056442  0.79711805  0.64558464    -0.04200
C914        C  0.38059657  0.77004603  0.64103145    -0.01300
C915        C  0.35105627  0.77566934  0.60404386     0.03700
C916        C  0.35615934  0.80204755  0.56054529    -0.04200
C917        C  0.38695366  0.82984831  0.56720119    -0.01300
C918        C  0.41102823  0.82901736  0.61116837     0.03700
C919        C  0.37852245  0.73734397  0.67674676     0.38300
C920        C  0.39809354  0.85829735  0.52798571     0.38300
C921        C  0.43894411  0.86007798  0.61797184     0.36800
C922        C  0.31444796  0.75869838  0.61909366     0.36800
N923        N  0.46118523  0.88467318  0.62302518    -0.38100
N924        N  0.28638332  0.74529283  0.63655672    -0.38100
N925        N  0.41078447  0.88185665  0.50029198    -0.37500
N926        N  0.37673181  0.71120587  0.70502915    -0.37500
C927        C  0.29762222  0.76984468  0.50533089    -0.04200
C928        C  0.30415470  0.72990196  0.51567655    -0.01300
C929        C  0.27283176  0.70408974  0.52467854     0.03700
C930        C  0.23796188  0.70803143  0.49621269    -0.04200
C931        C  0.23168374  0.74666377  0.97376785    -0.01300
C932        C  0.25711449  0.77802695  0.98575548     0.03700
C933        C  0.34187524  0.71293509  0.51905561     0.38300
C934        C  0.20256346  0.75436534  0.93516151     0.38300
C935        C  0.24257140  0.81609880  0.97398664     0.36800
C936        C  0.27671595  0.67976468  0.57032021     0.36800
N937        N  0.22950944  0.84569769  0.96368316    -0.38100
N938        N  0.28155712  0.66219900  0.60820359    -0.38100
N939        N  0.18040339  0.76239096  0.90382128    -0.37500
N940        N  0.36966360  0.69489372  0.52166933    -0.37500
C941        C  0.20580559  0.64487689  0.53952252    -0.04200
C942        C  0.23475035  0.61488674  0.53931555    -0.01300
C943        C  0.23714837  0.58767816  0.58064790     0.03700
C944        C  0.21374995  0.59107857  0.62561475    -0.04200
C945        C  0.18519075  0.61939172  0.62682363    -0.01300
C946        C  0.17793986  0.64207603  0.58224727     0.03700
C947        C  0.26506059  0.61290134  0.49941934     0.38300
C948        C  0.16187585  0.62457325  0.67406773     0.38300
C949        C  0.13836849  0.65500432  0.57988059     0.36800
C950        C  0.26424853  0.55606180  0.57686343     0.36800
N951        N  0.10603999  0.66312158  0.58044812    -0.38100
N952        N  0.28575661  0.53085860  0.57361236    -0.38100
N953        N  0.14334253  0.62878660  0.71155477    -0.37500
N954        N  0.29017595  0.61050223  0.46926804    -0.37500
C955        C  0.20539339  0.65012922  0.94096812    -0.04200
C956        C  0.18079636  0.61651163  0.93701432    -0.01300
C957        C  0.18534168  0.58967550  0.89635313     0.03700
C958        C  0.21210267  0.59612822  0.85527562    -0.04200
C959        C  0.23543543  0.62938023  0.85628515    -0.01300
C960        C  0.23292233  0.65572695  0.89843805     0.03700
C961        C  0.14868244  0.60897180  0.97290118     0.38300
C962        C  0.26260677  0.63658779  0.81331229     0.38300
C963        C  0.26071921  0.68687499  0.89625816     0.36800
C964        C  0.16300415  0.55400499  0.89831527     0.36800
N965        N  0.28427356  0.71045315  0.89161076    -0.38100
N966        N  0.14538163  0.52560281  0.90020527    -0.38100
N967        N  0.28434775  0.64235397  0.77927929    -0.37500
N968        N  0.12300775  0.60151307  0.49760980    -0.37500
C969        C  0.29144273  0.92544628  0.51172387    -0.04200
C970        C  0.28002430  0.89801808  0.54978941    -0.01300
C971        C  0.29202849  0.85910946  0.54645604     0.03700
C972        C  0.31639514  0.84541142  0.50440723    -0.04200
C973        C  0.32608050  0.87655952  0.96436014    -0.01300
C974        C  0.31588604  0.91589821  0.97061501     0.03700
C975        C  0.25312228  0.90900462  0.59125090     0.38300
C976        C  0.35163049  0.87029570  0.92005625     0.38300
C977        C  0.33174723  0.94522642  0.93499580     0.36800
C978        C  0.27356349  0.83308341  0.58374658     0.36800
N979        N  0.34444454  0.96848720  0.90684317    -0.38100
N980        N  0.25483231  0.81587105  0.61371462    -0.38100
N981        N  0.37246057  0.86988782  0.88424764    -0.37500
N982        N  0.23157263  0.91736416  0.62417459    -0.37500
C983        C  0.29100944  0.11373427  0.50433640    -0.04200
C984        C  0.28145240  0.14531488  0.96641631    -0.01300
C985        C  0.29903579  0.18235117  0.96554976     0.03700
C986        C  0.32750678  0.18978756  0.50375817    -0.04200
C987        C  0.33235203  0.16203845  0.54588688    -0.01300
C988        C  0.31645249  0.12419705  0.54372117     0.03700
C989        C  0.25236313  0.13645399  0.92833901     0.38300
C990        C  0.34959129  0.17141681  0.59527650     0.38300
C991        C  0.32623294  0.09565647  0.58306541     0.36800
C992        C  0.29011562  0.20661690  0.92114109     0.36800
N993        N  0.33404403  0.07299668  0.61440786    -0.38100
N994        N  0.28122411  0.22307807  0.88390043    -0.38100
N995        N  0.36228300  0.17742733  0.63581379    -0.37500
N996        N  0.22952347  0.12994912  0.89738030    -0.37500
C997        C  0.91582525  0.31265497  0.48770213    -0.04200
C998        C  0.88352988  0.30115468  0.96066243    -0.01300
C999        C  0.84661335  0.31763285  0.96716523     0.03700
C1000       C  0.83976785  0.34510097  0.50423827    -0.04200
C1001       C  0.87187869  0.35414897  0.53758924    -0.01300
C1002       C  0.90905255  0.33871061  0.52807299     0.03700
C1003       C  0.88983527  0.27287571  0.92003962     0.38300
C1004       C  0.86958246  0.37871182  0.58281038     0.38300
C1005       C  0.94133214  0.35001415  0.56024073     0.36800
C1006       C  0.81812455  0.30784813  0.92853941     0.36800
N1007       N  0.96697836  0.35888488  0.58575833    -0.38100
N1008       N  0.79638147  0.29959753  0.89689991    -0.38100
N1009       N  0.87040847  0.39790745  0.61940195    -0.37500
N1010       N  0.89454934  0.25044547  0.88754615    -0.37500
C1011       C  0.17685430  0.33443143  0.49018773    -0.04200
C1012       C  0.17004386  0.29353863  0.48934113    -0.01300
C1013       C  0.13269740  0.27817662  0.49714792     0.03700
C1014       C  0.10009871  0.30088012  0.48934885    -0.04200
C1015       C  0.10297041  0.34057303  0.98125747    -0.01300
C1016       C  0.14014987  0.35804766  0.98386792     0.03700
C1017       C  0.19832220  0.26556016  0.47303212     0.38300
C1018       C  0.06880962  0.36361986  0.97274066     0.38300
C1019       C  0.14030248  0.39969143  0.98247974     0.36800
C1020       C  0.12858416  0.23862810  0.51495441     0.36800
N1021       N  0.13660813  0.43274422  0.98065035    -0.38100
N1022       N  0.12748429  0.20750857  0.53121550    -0.38100
N1023       N  0.04155160  0.38188990  0.96606308    -0.37500
N1024       N  0.21886444  0.24149975  0.45924222    -0.37500
C1025       C  0.07521549  0.14777748  0.48566464    -0.04200
C1026       C  0.09477362  0.13682100  0.94501106    -0.01300
C1027       C  0.12487025  0.10996010  0.94790511     0.03700
C1028       C  0.13609906  0.09361500  0.49274486    -0.04200
C1029       C  0.11495032  0.10471331  0.53804367    -0.01300
C1030       C  0.08330897  0.12950803  0.53391448     0.03700
C1031       C  0.08577575  0.15342382  0.89450811     0.38300
C1032       C  0.12535400  0.09150853  0.58980216     0.38300
C1033       C  0.05939299  0.13600425  0.58018789     0.36800
C1034       C  0.14322294  0.09799247  0.89936795     0.36800
N1035       N  0.04049593  0.14098888  0.61715774    -0.38100
N1036       N  0.15717671  0.08848429  0.86026326    -0.38100
N1037       N  0.13336917  0.08146657  0.63132140    -0.37500
N1038       N  0.07882212  0.16639603  0.85408605    -0.37500
C1039       C  0.67076263  0.84855716  0.49833751    -0.04200
C1040       C  0.66363956  0.87820533  0.53686718    -0.01300
C1041       C  0.68114454  0.91536018  0.53257545     0.03700
C1042       C  0.70424792  0.92608536  0.48904536    -0.04200
C1043       C  0.70502528  0.89997839  0.94971550    -0.01300
C1044       C  0.69324099  0.86085947  0.95575790     0.03700
C1045       C  0.63528716  0.87489323  0.57893276     0.38300
C1046       C  0.72017880  0.91303234  0.89926890     0.38300
C1047       C  0.70532640  0.83515309  0.91443272     0.36800
C1048       C  0.67398669  0.94355982  0.57323730     0.36800
N1049       N  0.71695607  0.81680179  0.88028221    -0.38100
N1050       N  0.66828522  0.96576081  0.60575603    -0.38100
N1051       N  0.73213804  0.92308800  0.85891811    -0.37500
N1052       N  0.61239501  0.87601752  0.61234527    -0.37500
C1053       C  0.68366275  0.19475419  0.49042809    -0.04200
C1054       C  0.67310921  0.16569694  0.52946426    -0.01300
C1055       C  0.68514916  0.12675874  0.52480270     0.03700
C1056       C  0.70692776  0.11416822  0.98759199    -0.04200
C1057       C  0.71443013  0.14013480  0.94585379    -0.01300
C1058       C  0.70361102  0.17950171  0.94883370     0.03700
C1059       C  0.64592682  0.17169703  0.57216009     0.38300
C1060       C  0.73602893  0.12724498  0.90015403     0.38300
C1061       C  0.71815861  0.20420246  0.90680747     0.36800
C1062       C  0.67267282  0.09828674  0.56386897     0.36800
N1063       N  0.73199220  0.22127783  0.87221413    -0.38100
N1064       N  0.66262336  0.07573891  0.59484387    -0.38100
N1065       N  0.75324226  0.11728791  0.86367666    -0.37500
N1066       N  0.62340893  0.17248606  0.60605727    -0.37500
C1067       C  0.85480194  0.10498312  0.48165364    -0.04200
C1068       C  0.88282419  0.10576894  0.94869022    -0.01300
C1069       C  0.91268060  0.13332325  0.94987184     0.03700
C1070       C  0.91376383  0.16260591  0.48128181    -0.04200
C1071       C  0.88913037  0.15723416  0.52543171    -0.01300
C1072       C  0.86036947  0.12836633  0.52602224     0.03700
C1073       C  0.88222087  0.07849390  0.90618362     0.38300
C1074       C  0.89234395  0.18212122  0.57035846     0.38300
C1075       C  0.83618291  0.12376342  0.57255605     0.36800
C1076       C  0.94266885  0.13275827  0.90949394     0.36800
N1077       N  0.81718177  0.12024177  0.60994323    -0.38100
N1078       N  0.96655764  0.13211493  0.87741143    -0.38100
N1079       N  0.89481195  0.20188023  0.60615457    -0.37500
N1080       N  0.88186254  0.05673738  0.87232727    -0.37500
C1081       C  0.90478527  0.73155651  0.01607480    -0.04200
C1082       C  0.89449190  0.70998248  0.97230874    -0.01300
C1083       C  0.85759188  0.69194761  0.96923294     0.03700
C1084       C  0.82739758  0.69881378  0.00796340    -0.04200
C1085       C  0.84037339  0.71922871  0.54760954    -0.01300
C1086       C  0.87958935  0.73006427  0.55092910     0.03700
C1087       C  0.92358933  0.70326616  0.93180021     0.38300
C1088       C  0.81510266  0.73261283  0.58933600     0.38300
C1089       C  0.89402365  0.74222184  0.60094681     0.36800
C1090       C  0.85492722  0.66363854  0.92842065     0.36800
N1091       N  0.90542893  0.75115134  0.64116547    -0.38100
N1092       N  0.85625643  0.64082876  0.89587040    -0.38100
N1093       N  0.79688570  0.74521611  0.62325901    -0.37500
N1094       N  0.94668664  0.69759434  0.89968213    -0.37500
C1095       C  0.16433090  0.69856249  0.49180936    -0.04200
C1096       C  0.15546698  0.72590992  0.53199492    -0.01300
C1097       C  0.11906181  0.74419667  0.53494668     0.03700
C1098       C  0.08932536  0.73390121  0.50074223    -0.04200
C1099       C  0.09502159  0.70867810  0.96798091    -0.01300
C1100       C  0.13269466  0.69547086  0.95710558     0.03700
C1101       C  0.18226678  0.73347441  0.57347989     0.38300
C1102       C  0.06349721  0.69616471  0.93561687     0.38300
C1103       C  0.14009960  0.68505660  0.90319174     0.36800
C1104       C  0.11253669  0.77386300  0.57354208     0.36800
N1105       N  0.14492739  0.67764573  0.85967253    -0.38100
N1106       N  0.10751647  0.79758995  0.60420648    -0.38100
N1107       N  0.03843693  0.68583680  0.91005142    -0.37500
N1108       N  0.20286316  0.73960154  0.60733176    -0.37500
C1109       C  0.91432124  0.88303946  0.49910062    -0.04200
C1110       C  0.91737912  0.91266526  0.46094097    -0.01300
C1111       C  0.88830987  0.94053568  0.45701799     0.03700
C1112       C  0.85995317  0.94331404  0.99332995    -0.04200
C1113       C  0.89853658  0.95535261  0.99966936    -0.01300
C1114       C  0.92770323  0.92753975  0.00604294     0.03700
C1115       C  0.95127948  0.91562822  0.42691311     0.38300
C1116       C  0.90827428  0.99591865  0.99946635     0.38300
C1117       C  0.96794897  0.93899821  0.00455646     0.36800
C1118       C  0.89248852  0.97118594  0.41845898     0.36800
N1119       N  0.00003669  0.94831108  0.00264478    -0.38100
N1120       N  0.89613569  0.99549116  0.38758384    -0.38100
N1121       N  0.91653634  0.02820412  0.00018159    -0.37500
N1122       N  0.97832483  0.91806172  0.39989767    -0.37500
C1123       C  0.08279449  0.88314305  0.01302112    -0.04200
C1124       C  0.07651864  0.91517911  0.53166134    -0.01300
C1125       C  0.10681857  0.94235348  0.53220167     0.03700
C1126       C  0.13956404  0.93798719  0.49907184    -0.04200
C1127       C  0.14123767  0.91027580  0.97134102    -0.01300
C1128       C  0.11146871  0.88245733  0.97299515     0.03700
C1129       C  0.04214539  0.92122457  0.56372593     0.38300
C1130       C  0.16969273  0.90939786  0.92909143     0.38300
C1131       C  0.11149029  0.85219857  0.93437009     0.36800
C1132       C  0.10285980  0.97613393  0.56453653     0.36800
N1133       N  0.11164654  0.82804335  0.90366648    -0.38100
N1134       N  0.09909961  0.00303566  0.59024960    -0.38100
N1135       N  0.19222619  0.90879630  0.89522983    -0.37500
N1136       N  0.01467675  0.92607849  0.58908496    -0.37500
loop_ 
_geom_bond_atom_site_label_1 
_geom_bond_atom_site_label_2 
_geom_bond_distance 
_geom_bond_site_symmetry_2 
_ccdc_geom_bond_type 
O1            V9   1.891   1_455  S
O1          C579   1.263       .  A
O2            V9   1.905       .  S
O2          C580   1.266       .  A
O3            V9   1.909   1_455  S
O3           C13   1.267       .  A
O4            V9   1.910       .  S
O4           C14   1.266       .  A
O5           V10   1.885       .  S
O5          C582   1.261       .  A
O6           V10   1.890   1_455  S
O6          C581   1.264       .  A
O7           V10   1.904       .  S
O7           C12   1.267       .  A
O8           V10   1.897   1_455  S
O8           C11   1.264       .  A
V9          V578   2.084   1_554  T
V10         V577   2.084       .  T
C11         O569   1.263       .  A
C11         C555   1.481       .  S
C12         O570   1.265       .  A
C12         C513   1.511       .  S
C13         O574   1.264   1_554  A
C13         C530   1.498       .  S
C14         O573   1.260   1_554  A
C14         C541   1.474       .  S
O15          V23   1.894       .  S
O15         C593   1.264       .  A
O16          V23   1.904   1_565  S
O16         C594   1.265       .  A
O17          V23   1.906       .  S
O17          C27   1.267       .  A
O18          V23   1.901   1_565  S
O18          C28   1.265       .  A
O19          V24   1.892   1_565  S
O19         C596   1.262   1_554  A
O20          V24   1.904       .  S
O20         C595   1.267   1_554  A
O21          V24   1.908   1_565  S
O21          C26   1.268   1_554  A
O22          V24   1.890       .  S
O22          C25   1.263   1_554  A
V23         V592   2.081       .  T
V24         V591   2.081   1_554  T
C25         O583   1.264       .  A
C25         C499   1.486       .  S
C26         O584   1.267       .  A
C26         C474   1.524       .  S
C27         O588   1.265       .  A
C27         C488   1.509       .  S
C28         O587   1.260       .  A
C28         C544   1.481       .  S
O29          V37   1.899       .  S
O29         C607   1.265       .  A
O30          V37   1.903   1_655  S
O30         C608   1.266       .  A
O31          V37   1.906       .  S
O31         C609   1.265       .  A
O32          V37   1.891   1_655  S
O32          C42   1.262       .  A
O33          V38   1.896   1_655  S
O33         C610   1.263   1_554  A
O34          V38   1.905       .  S
O34          C41   1.265   1_554  A
O35          V38   1.888   1_655  S
O35          C40   1.263   1_554  A
O36          V38   1.879       .  S
O36          C39   1.261   1_554  A
V37         V606   2.082       .  T
V38         V605   2.083   1_554  T
C39         O597   1.263       .  A
C39         C457   1.492       .  S
C40         O598   1.265       .  A
C40         C429   1.488       .  S
C41         O599   1.265       .  A
C41         C446   1.488       .  S
C42         O601   1.265       .  A
C42        C1070   1.494       .  S
O43          V51   1.897       .  S
O43         C621   1.266       .  A
O44          V51   1.907   1_565  S
O44         C622   1.267       .  A
O45          V51   1.900       .  S
O45          C55   1.264       .  A
O46          V51   1.887   1_565  S
O46          C56   1.261       .  A
O47          V52   1.896   1_565  S
O47         C624   1.263       .  A
O48          V52   1.908       .  S
O48         C623   1.267       .  A
O49          V52   1.896   1_565  S
O49          C54   1.265       .  A
O50          V52   1.885       .  S
O50          C53   1.261       .  A
V51         V620   2.081   1_554  T
V52         V619   2.081       .  T
C53         O611   1.263       .  A
C53        C1028   1.497       .  S
C54         O612   1.266       .  A
C54         C969   1.504       .  S
C55         O616   1.268   1_554  A
C55         C415   1.505       .  S
C56         O615   1.265   1_554  A
C56         C558   1.490       .  S
C57         C362   1.633       .  S
C57         C373   1.619   1_556  S
C57         C527   1.606       .  S
C57         C955   1.608       .  S
C58         C348   1.622       .  S
C58         C359   1.630       .  S
C58         C404   1.618       .  S
C58         C899   1.609   1_554  S
O59          V67   1.897       .  S
O59          C69   1.261       .  A
O60          V67   1.896       .  S
O60          C70   1.261       .  A
O61          V67   1.932       .  S
O61          C71   1.274       .  A
O62          V67   1.931       .  S
O62          C72   1.273       .  A
O63          V68   1.881       .  S
O63          C72   1.260       .  A
O64          V68   1.886       .  S
O64          C71   1.261       .  A
O65          V68   1.918       .  S
O65          C70   1.269       .  A
O66          V68   1.916       .  S
O66          C69   1.269       .  A
V67          V68   2.080       .  T
C69         C303   1.487       .  S
C70         C334   1.487       .  S
C71         C345   1.509       .  S
C72         C317   1.509       .  S
C73         C289   1.626       .  S
C73         C306   1.605       .  S
C73         C471   1.623       .  S
C73         C888   1.616   1_554  S
C74         C261   1.603       .  S
C74         C292   1.625       .  S
C74         C516   1.614       .  S
C74         C843   1.609       .  S
C75         C247   1.616       .  S
C75         C787   1.631       .  S
C75         C804   1.616       .  S
C75         C986   1.619       .  S
C76         C208   1.603   1_556  S
C76         C222   1.632       .  S
C76         C443   1.615       .  S
C76         C762   1.601       .  S
O77          V85   1.906       .  S
O77          C87   1.265       .  A
O78          V85   1.899       .  S
O78          C88   1.263       .  A
O79          V85   1.906       .  S
O79          C89   1.267       .  A
O80          V85   1.911       .  S
O80          C90   1.267       .  A
O81          V86   1.893       .  S
O81          C90   1.264       .  A
O82          V86   1.888       .  S
O82          C89   1.262       .  A
O83          V86   1.899       .  S
O83          C88   1.263       .  A
O84          V86   1.893       .  S
O84          C87   1.264       .  A
V85          V86   2.084       .  T
C87         C376   1.489       .  S
C88         C191   1.479       .  S
C89         C205   1.507       .  S
C90         C390   1.497       .  S
O91          V99   1.916       .  S
O91         C101   1.269       .  A
O92          V99   1.915       .  S
O92         C102   1.268       .  A
O93          V99   1.894       .  S
O93         C103   1.261       .  A
O94          V99   1.901       .  S
O94         C104   1.265       .  A
O95         V100   1.905       .  S
O95         C104   1.267       .  A
O96         V100   1.895       .  S
O96         C103   1.263       .  A
O97         V100   1.875       .  S
O97         C102   1.260       .  A
O98         V100   1.887       .  S
O98         C101   1.261       .  A
V99         V100   2.085       .  T
C101        C233   1.495       .  S
C102        C163   1.484       .  S
C103        C177   1.470       .  S
C104        C250   1.501       .  S
C105        C152   1.625       .  S
C105        C180   1.608   1_556  S
C105        C485   1.626       .  S
C105        C734   1.600       .  S
C106        C124   1.589       .  S
C106        C149   1.629       .  S
C106        C432   1.603       .  S
C106        C703   1.629   1_554  S
O107        V115   1.885       .  S
O107        C117   1.264       .  A
O108        V115   1.882       .  S
O108        C118   1.260       .  A
O109        V115   1.897       .  S
O109        C119   1.263       .  A
O110        V115   1.898       .  S
O110        C120   1.264       .  A
O111        V116   1.901       .  S
O111        C120   1.263       .  A
O112        V116   1.905       .  S
O112        C119   1.264       .  A
O113        V116   1.905       .  S
O113        C118   1.267       .  A
O114        V116   1.914       .  S
O114        C117   1.267       .  A
V115        V116   2.085       .  T
C117        C138   1.499       .  S
C118        C278   1.494       .  S
C119        C264   1.480       .  S
C120        C121   1.481       .  S
C121        C122   1.399       .  A
C121        C126   1.402       .  A
C122        C123   1.410       .  A
C122        C127   1.452       .  S
C123        C124   1.442       .  A
C123        C130   1.449       .  S
C124        C125   1.440       .  A
C125        C126   1.417       .  A
C125        C128   1.449       .  S
C126        C129   1.454       .  S
C127        N134   1.155       .  T
C128        N133   1.157       .  T
C129        N131   1.157       .  T
C130        N132   1.157   1_554  T
C135        C674   1.627       .  S
C135        C136   1.449       .  A
C135        C140   1.454       .  A
C136        C137   1.423       .  A
C136        C141   1.446       .  S
C137        C138   1.402       .  A
C137        C144   1.455       .  S
C138        C139   1.399       .  A
C139        C140   1.406       .  A
C139        C142   1.457       .  S
C140        C143   1.456       .  S
C141        N148   1.158       .  T
C142        N147   1.158       .  T
C143        N145   1.158       .  T
C144        N146   1.157       .  T
C149        C150   1.416       .  A
C149        C722   1.434       .  A
C150        C151   1.410   1_554  A
C150        C155   1.448       .  S
C151        C152   1.441       .  A
C151        C158   1.449       .  S
C152        C721   1.450   1_556  A
C153        C154   1.438       .  A
C153        C720   1.454       .  A
C153        C156   1.453       .  S
C154        C717   1.436       .  A
C154        C157   1.458       .  S
C155        N162   1.158       .  T
C156        N161   1.159       .  T
C157        N159   1.158       .  T
C158        N160   1.157       .  T
C163        C164   1.401       .  A
C163        C168   1.404       .  A
C164        C165   1.408       .  A
C164        C169   1.463       .  S
C165        C166   1.451       .  A
C165        C172   1.450       .  S
C166        C673   1.603       .  S
C166        C167   1.446       .  A
C167        C168   1.423       .  A
C167        C170   1.448       .  S
C168        C171   1.453       .  S
C169        N176   1.158       .  T
C170        N175   1.158       .  T
C171        N173   1.157       .  T
C172        N174   1.158       .  T
C177        C178   1.391       .  A
C177        C182   1.398       .  A
C178        C179   1.409       .  A
C178        C183   1.459       .  S
C179        C180   1.458       .  A
C179        C186   1.452   1_554  S
C180        C181   1.445       .  A
C181        C182   1.418       .  A
C181        C184   1.450       .  S
C182        C185   1.454       .  S
C183        N190   1.157       .  T
C184        N189   1.157       .  T
C185        N187   1.157       .  T
C186        N188   1.158       .  T
C191        C192   1.395       .  A
C191        C196   1.399       .  A
C192        C193   1.412       .  A
C192        C197   1.458       .  S
C193        C194   1.454       .  A
C193        C200   1.450       .  S
C194        C644   1.607       .  S
C194        C195   1.446       .  A
C195        C196   1.416       .  A
C195        C198   1.450       .  S
C196        C199   1.453       .  S
C197        N204   1.157       .  T
C198        N203   1.157       .  T
C199        N201   1.157       .  T
C200        N202   1.158       .  T
C205        C206   1.413       .  A
C205        C210   1.411       .  A
C206        C207   1.416       .  A
C206        C211   1.458       .  S
C207        C208   1.445       .  A
C207        C214   1.452       .  S
C208        C209   1.443       .  A
C209        C210   1.419       .  A
C209        C212   1.449       .  S
C210        C213   1.455       .  S
C211        N218   1.158       .  T
C212        N217   1.157       .  T
C213        N215   1.158       .  T
C214        N216   1.158       .  T
C219        C643   1.631       .  S
C219        C224   1.438   1_556  A
C219        C788   1.442       .  A
C220        C221   1.430       .  A
C220        C787   1.443       .  A
C220        C225   1.455       .  S
C221        C790   1.441       .  A
C221        C228   1.454       .  S
C222        C223   1.438   1_556  A
C222        C789   1.442       .  A
C223        C224   1.436       .  A
C223        C226   1.453       .  S
C224        C227   1.453       .  S
C225        N232   1.159       .  T
C226        N231   1.157       .  T
C227        N229   1.157       .  T
C228        N230   1.158       .  T
C233        C234   1.400       .  A
C233        C238   1.405       .  A
C234        C235   1.422       .  A
C234        C239   1.456       .  S
C235        C236   1.452       .  A
C235        C242   1.443       .  S
C236        C643   1.616   1_554  S
C236        C237   1.450       .  A
C237        C238   1.415       .  A
C237        C240   1.451       .  S
C238        C241   1.458       .  S
C239        N246   1.157       .  T
C240        N245   1.157   1_554  T
C241        N243   1.158       .  T
C242        N244   1.156       .  T
C247        C248   1.448       .  A
C247        C252   1.453       .  A
C248        C249   1.418       .  A
C248        C253   1.452       .  S
C249        C250   1.406       .  A
C249        C256   1.455       .  S
C250        C251   1.404       .  A
C251        C252   1.418       .  A
C251        C254   1.457       .  S
C252        C255   1.450       .  S
C253        N828   1.157       .  T
C254        N259   1.157       .  T
C255        N257   1.158       .  T
C256        N258   1.157       .  T
N260        C821   1.157       .  T
C261        C262   1.451       .  A
C261        C266   1.442       .  A
C262        C263   1.408       .  A
C262        C267   1.452       .  S
C263        C264   1.394       .  A
C263        C270   1.454       .  S
C264        C265   1.404       .  A
C265        C266   1.421       .  A
C265        C268   1.452       .  S
C266        C269   1.450       .  S
C267        N274   1.158       .  T
C268        N273   1.157       .  T
C269        N271   1.157       .  T
C270        N272   1.156       .  T
C275        C642   1.607       .  S
C275        C276   1.447       .  A
C275        C280   1.446       .  A
C276        C277   1.408       .  A
C276        C281   1.452       .  S
C277        C278   1.406       .  A
C277        C284   1.456       .  S
C278        C279   1.405       .  A
C279        C280   1.417       .  A
C279        C282   1.456       .  S
C280        C283   1.441       .  S
C281        N288   1.157       .  T
C282        N287   1.158       .  T
C283        N285   1.155       .  T
C284        N286   1.158       .  T
C289        C290   1.436       .  A
C289        C862   1.438       .  A
C290        C291   1.421   1_554  A
C290        C295   1.450       .  S
C291        C860   1.435   1_556  A
C291        C298   1.451       .  S
C292        C293   1.434       .  A
C292        C859   1.439       .  A
C293        C294   1.434       .  A
C293        C296   1.453       .  S
C294        C857   1.438       .  A
C294        C297   1.449       .  S
C295        N302   1.158       .  T
C296        N301   1.157       .  T
C297        N299   1.157       .  T
C298        N300   1.158       .  T
C303        C304   1.408       .  A
C303        C308   1.394       .  A
C304        C305   1.427       .  A
C304        C309   1.451       .  S
C305        C306   1.441       .  A
C305        C312   1.446       .  S
C306        C307   1.441       .  A
C307        C308   1.402       .  A
C307        C310   1.451       .  S
C308        C311   1.445       .  S
C309        N316   1.157       .  T
C310        N883   1.158   1_554  T
C311        N313   1.154       .  T
C312        N314   1.157       .  T
N315        C878   1.158       .  T
C317        C318   1.411       .  A
C317        C322   1.407       .  A
C318        C319   1.415       .  A
C318        C323   1.460       .  S
C319        C320   1.448       .  A
C319        C326   1.451       .  S
C320        C641   1.619       .  S
C320        C321   1.448       .  A
C321        C322   1.428       .  A
C321        C324   1.442       .  S
C322        C325   1.454       .  S
C323        N330   1.158       .  T
C324        N329   1.156       .  T
C325        N327   1.157       .  T
C326        N328   1.157       .  T
C331        C626   1.608       .  S
C331        C332   1.448       .  A
C331        C336   1.438       .  A
C332        C333   1.426       .  A
C332        C337   1.445       .  S
C333        C334   1.402       .  A
C333        C340   1.453       .  S
C334        C335   1.395       .  A
C335        C336   1.406       .  A
C335        C338   1.443       .  S
C336        C339   1.448       .  S
C337        N344   1.157       .  T
C338        N343   1.153       .  T
C339        N909   1.158       .  T
C340        N342   1.156       .  T
N341        C907   1.158       .  T
C345        C346   1.406       .  A
C345        C350   1.410       .  A
C346        C347   1.426       .  A
C346        C351   1.453       .  S
C347        C348   1.443       .  A
C347        C354   1.440       .  S
C348        C349   1.451       .  A
C349        C350   1.418       .  A
C349        C352   1.450       .  S
C350        C353   1.459       .  S
C351        N358   1.157       .  T
C352        N357   1.158   1_554  T
C353        N355   1.158       .  T
C354        N356   1.156       .  T
C359        C360   1.431       .  A
C359        C932   1.447   1_554  A
C360        C361   1.422       .  A
C360        C365   1.445       .  S
C361        C362   1.435   1_554  A
C361        C368   1.445       .  S
C362        C931   1.443       .  A
C363        C364   1.433       .  A
C363        C930   1.438       .  A
C363        C366   1.452       .  S
C364        C927   1.445       .  A
C364        C367   1.448       .  S
C365        N372   1.157       .  T
C366        N371   1.157       .  T
C367        N369   1.156       .  T
C368        N370   1.158       .  T
C373        C374   1.453       .  A
C373        C378   1.449       .  A
C374        C375   1.421       .  A
C374        C379   1.455   1_554  S
C375        C376   1.404       .  A
C375        C382   1.454       .  S
C376        C377   1.400       .  A
C377        C378   1.408       .  A
C377        C380   1.457       .  S
C378        C381   1.450       .  S
C379        N386   1.158       .  T
C380        N385   1.158       .  T
C381        N383   1.158       .  T
C382        N384   1.157       .  T
C387        C625   1.602       .  S
C387        C388   1.447       .  A
C387        C392   1.446       .  A
C388        C389   1.410       .  A
C388        C393   1.452       .  S
C389        C390   1.405       .  A
C389        C396   1.458       .  S
C390        C391   1.407       .  A
C391        C392   1.424       .  A
C391        C394   1.455       .  S
C392        C395   1.446       .  S
C393        N968   1.157       .  T
C394        N399   1.157       .  T
C395        N397   1.157       .  T
C396        N398   1.158       .  T
N400        C961   1.157       .  T
C401        C622   1.503       .  S
C401        C402   1.407       .  A
C401        C974   1.401   1_554  A
C402        C403   1.421       .  A
C402        C407   1.457       .  S
C403        C404   1.445       .  A
C403        C410   1.449       .  S
C404        C973   1.456   1_554  A
C405        C406   1.424       .  A
C405        C972   1.457       .  A
C405        C408   1.447       .  S
C406        C969   1.401       .  A
C406        C409   1.459       .  S
C407        N414   1.158       .  T
C408        N413   1.158       .  T
C409        N411   1.157       .  T
C410        N412   1.156       .  T
C415        C420   1.405       .  A
C415        C984   1.410   1_554  A
C416        C417   1.422       .  A
C416        C983   1.411       .  A
C416        C421   1.454       .  S
C417        C986   1.443       .  A
C417        C424   1.450       .  S
C418        C643   1.612   1_554  S
C418        C419   1.452       .  A
C418        C985   1.442   1_554  A
C419        C420   1.421       .  A
C419        C422   1.452       .  S
C420        C423   1.456       .  S
C421        N428   1.157       .  T
C422        N427   1.158       .  T
C423        N425   1.157       .  T
C424        N426   1.157       .  T
C429        C434   1.401   1_556  A
C429        C998   1.408       .  A
C430        C431   1.416       .  A
C430        C997   1.407       .  A
C430        C435   1.455       .  S
C431       C1000   1.451       .  A
C431        C438   1.456       .  S
C432        C433   1.450       .  A
C432        C999   1.448   1_554  A
C433        C434   1.415       .  A
C433        C436   1.450       .  S
C434        C437   1.458       .  S
C435        N442   1.158       .  T
C436        N441   1.158       .  T
C437        N439   1.157       .  T
C438        N440   1.157       .  T
C443        C444   1.439       .  A
C443       C1016   1.457       .  A
C444        C445   1.409       .  A
C444        C449   1.444       .  S
C445        C446   1.400       .  A
C445        C452   1.449   1_556  S
C446       C1015   1.398       .  A
C447        C448   1.424       .  A
C447       C1014   1.397       .  A
C447        C450   1.454       .  S
C448       C1011   1.456       .  A
C448        C451   1.447       .  S
C449        N456   1.156       .  T
C450        N455   1.157       .  T
C451        N453   1.157       .  T
C452        N454   1.155       .  T
C457        C462   1.418   1_556  A
C457       C1026   1.415       .  A
C458        C459   1.409       .  A
C458       C1025   1.416       .  A
C458        C463   1.453       .  S
C459       C1028   1.423       .  A
C459        C466   1.453       .  S
C460        C621   1.498   1_556  S
C460        C461   1.419   1_556  A
C460       C1027   1.425       .  A
C461        C462   1.407       .  A
C461        C464   1.453       .  S
C462        C465   1.455       .  S
C463        N470   1.158       .  T
C464        N469   1.157       .  T
C465        N467   1.158       .  T
C466        N468   1.158       .  T
C471        C472   1.453       .  A
C471       C1044   1.443   1_554  A
C472        C473   1.427       .  A
C472        C477   1.448       .  S
C473        C474   1.411   1_554  A
C473        C480   1.457       .  S
C474       C1043   1.414       .  A
C475        C476   1.423       .  A
C475       C1042   1.414       .  A
C475        C478   1.455       .  S
C476       C1039   1.445       .  A
C476        C479   1.453       .  S
C477        N484   1.158       .  T
C478        N483   1.158       .  T
C479        N481   1.157       .  T
C480        N482   1.158       .  T
C485        C486   1.456   1_556  A
C485       C1058   1.446       .  A
C486        C487   1.427       .  A
C486        C491   1.448       .  S
C487       C1056   1.407   1_554  A
C487        C494   1.458       .  S
C488        C489   1.411       .  A
C488       C1055   1.405       .  A
C489        C490   1.421       .  A
C489        C492   1.456       .  S
C490       C1053   1.446       .  A
C490        C493   1.452       .  S
C491        N498   1.158       .  T
C492        N497   1.158       .  T
C493        N495   1.157       .  T
C494        N496   1.158       .  T
C499        C504   1.417   1_556  A
C499       C1068   1.416       .  A
C500        C501   1.411       .  A
C500       C1067   1.421       .  A
C500        C505   1.454       .  S
C501       C1070   1.418       .  A
C501        C508   1.453       .  S
C502        C610   1.485       .  S
C502        C503   1.415   1_556  A
C502       C1069   1.416       .  A
C503        C504   1.409       .  A
C503        C506   1.452       .  S
C504        C507   1.454       .  S
C505        N512   1.157       .  T
C506        N511   1.158       .  T
C507        N509   1.157       .  T
C508        N510   1.158       .  T
C513        C514   1.409       .  A
C513       C1086   1.410       .  A
C514        C515   1.424       .  A
C514        C519   1.457       .  S
C515        C516   1.453       .  A
C515        C522   1.449       .  S
C516       C1085   1.443       .  A
C517        C518   1.418       .  A
C517       C1084   1.445       .  A
C517        C520   1.453       .  S
C518       C1081   1.409       .  A
C518        C521   1.455       .  S
C519        N526   1.158       .  T
C520        N525   1.157       .  T
C521        N523   1.158       .  T
C522        N524   1.158       .  T
C527        C528   1.442   1_556  A
C527       C1100   1.444       .  A
C528        C529   1.420       .  A
C528        C533   1.451       .  S
C529        C530   1.413       .  A
C529        C536   1.453       .  S
C530       C1099   1.405   1_554  A
C531        C532   1.410       .  A
C531       C1098   1.405       .  A
C531        C534   1.455       .  S
C532       C1095   1.446       .  A
C532        C535   1.454       .  S
C533        N540   1.156       .  T
C534        N539   1.157       .  T
C535        N537   1.158       .  T
C536        N538   1.157       .  T
C541        C542   1.402       .  A
C541       C1114   1.412       .  A
C542        C543   1.397   1_554  A
C542        C547   1.438       .  S
C543       C1112   1.399       .  A
C543        C550   1.442       .  S
C544        C545   1.416       .  A
C544       C1111   1.412       .  A
C545        C546   1.407       .  A
C545        C548   1.453       .  S
C546       C1109   1.413       .  A
C546        C549   1.449       .  S
C547        N554   1.153       .  T
C548        N553   1.158       .  T
C549        N551   1.156       .  T
C550        N552   1.154       .  T
C555        C560   1.414       .  A
C555       C1124   1.412       .  A
C556        C557   1.408       .  A
C556       C1123   1.414       .  A
C556        C561   1.454       .  S
C557        C558   1.419       .  A
C557        C564   1.452       .  S
C558       C1127   1.416   1_554  A
C559        C560   1.410       .  A
C559       C1126   1.414       .  A
C559        C562   1.451       .  S
C560        C563   1.452       .  S
C561        N568   1.158       .  T
C562        N567   1.158       .  T
C563        N565   1.157       .  T
C564        N566   1.157       .  T
O569        V577   1.892   1_455  S
O570        V577   1.899       .  S
O571        V577   1.904   1_455  S
O571        C581   1.266       .  A
O572        V577   1.901       .  S
O572        C582   1.265       .  A
O573        V578   1.889       .  S
O574        V578   1.893   1_455  S
O575        V578   1.906       .  S
O575        C580   1.268   1_556  A
O576        V578   1.894   1_455  S
O576        C579   1.264   1_556  A
C579       C1123   1.487       .  S
C580       C1081   1.512       .  S
C581       C1098   1.496       .  S
C582       C1109   1.482       .  S
O583        V591   1.893       .  S
O584        V591   1.911   1_565  S
O585        V591   1.907       .  S
O585        C595   1.267       .  A
O586        V591   1.905   1_565  S
O586        C596   1.264       .  A
O587        V592   1.882   1_565  S
O588        V592   1.896       .  S
O589        V592   1.908   1_565  S
O589        C594   1.268       .  A
O590        V592   1.894       .  S
O590        C593   1.264       .  A
C593       C1067   1.500       .  S
C594       C1042   1.516       .  S
C595       C1056   1.517       .  S
C596       C1112   1.473       .  S
O597        V605   1.893       .  S
O598        V605   1.899   1_655  S
O599        V605   1.906       .  S
O600        V605   1.889   1_655  S
O600        C610   1.263       .  A
O601        V606   1.894   1_655  S
O602        V606   1.905       .  S
O602        C609   1.265       .  A
O603        V606   1.886   1_655  S
O603        C608   1.262       .  A
O604        V606   1.875       .  S
O604        C607   1.260       .  A
C607       C1025   1.494       .  S
C608        C997   1.489       .  S
C609       C1014   1.487       .  S
O611        V619   1.888       .  S
O612        V619   1.903   1_565  S
O613        V619   1.911       .  S
O613        C623   1.267       .  A
O614        V619   1.899   1_565  S
O614        C624   1.265       .  A
O615        V620   1.898   1_565  S
O616        V620   1.911       .  S
O617        V620   1.889   1_565  S
O617        C622   1.263   1_556  A
O618        V620   1.878       .  S
O618        C621   1.259   1_556  A
C623        C983   1.510       .  S
C624       C1126   1.486       .  S
C625        C930   1.624       .  S
C625        C941   1.615       .  S
C625       C1095   1.604       .  S
C626        C916   1.623       .  S
C626        C927   1.623       .  S
C626        C972   1.618       .  S
O627        V635   1.904       .  S
O627        C637   1.264       .  A
O628        V635   1.904       .  S
O628        C638   1.263       .  A
O629        V635   1.930       .  S
O629        C639   1.273       .  A
O630        V635   1.928       .  S
O630        C640   1.272       .  A
O631        V636   1.879       .  S
O631        C640   1.259       .  A
O632        V636   1.883       .  S
O632        C639   1.260       .  A
O633        V636   1.913       .  S
O633        C638   1.267       .  A
O634        V636   1.913       .  S
O634        C637   1.267       .  A
V635        V636   2.081       .  T
C637        C871   1.489       .  S
C638        C902   1.490       .  S
C639        C913   1.507       .  S
C640        C885   1.506       .  S
C641        C857   1.631       .  S
C641        C874   1.603       .  S
C641       C1039   1.621       .  S
C642        C829   1.609   1_554  S
C642        C860   1.624       .  S
C642       C1084   1.617       .  S
C643        C815   1.616       .  S
C644        C776   1.605       .  S
C644        C790   1.632       .  S
C644       C1011   1.614       .  S
O645        V653   1.906       .  S
O645        C655   1.265       .  A
O646        V653   1.899       .  S
O646        C656   1.263       .  A
O647        V653   1.911       .  S
O647        C657   1.268       .  A
O648        V653   1.914       .  S
O648        C658   1.268       .  A
O649        V654   1.898       .  S
O649        C658   1.265       .  A
O650        V654   1.891       .  S
O650        C657   1.263       .  A
O651        V654   1.894       .  S
O651        C656   1.262       .  A
O652        V654   1.891       .  S
O652        C655   1.263       .  A
V653        V654   2.084       .  T
C655        C944   1.490       .  S
C656        C759   1.475       .  S
C657        C773   1.511       .  S
C658        C958   1.503       .  S
O659        V667   1.917       .  S
O659        C669   1.270       .  A
O660        V667   1.915       .  S
O660        C670   1.268       .  A
O661        V667   1.893       .  S
O661        C671   1.261       .  A
O662        V667   1.900       .  S
O662        C672   1.264       .  A
O663        V668   1.907       .  S
O663        C672   1.268       .  A
O664        V668   1.898       .  S
O664        C671   1.264       .  A
O665        V668   1.873       .  S
O665        C670   1.259       .  A
O666        V668   1.885       .  S
O666        C669   1.260       .  A
V667        V668   2.085       .  T
C669        C801   1.494       .  S
C670        C731   1.484       .  S
C671        C745   1.472       .  S
C672        C818   1.501       .  S
C673        C720   1.626       .  S
C673        C748   1.609       .  S
C673       C1053   1.619       .  S
C674        C692   1.593       .  S
C674        C717   1.631       .  S
C674       C1000   1.607       .  S
O675        V683   1.890       .  S
O675        C685   1.265       .  A
O676        V683   1.891       .  S
O676        C686   1.263       .  A
O677        V683   1.899       .  S
O677        C687   1.263       .  A
O678        V683   1.900       .  S
O678        C688   1.264       .  A
O679        V684   1.911       .  S
O679        C688   1.265       .  A
O680        V684   1.911       .  S
O680        C687   1.266       .  A
O681        V684   1.909       .  S
O681        C686   1.268       .  A
O682        V684   1.914       .  S
O682        C685   1.267       .  A
V683        V684   2.084       .  T
C685        C706   1.502       .  S
C686        C846   1.501       .  S
C687        C832   1.486       .  S
C688        C689   1.487       .  S
C689        C690   1.398       .  A
C689        C694   1.404       .  A
C690        C691   1.410       .  A
C690        C695   1.449       .  S
C691        C692   1.442       .  A
C691        C698   1.450       .  S
C692        C693   1.441       .  A
C693        C694   1.421       .  A
C693        C696   1.448       .  S
C694        C697   1.453       .  S
C695        N702   1.154       .  T
C696        N701   1.157       .  T
C697        N699   1.157       .  T
C698        N700   1.158       .  T
C703        C704   1.447       .  A
C703        C708   1.454       .  A
C704        C705   1.423       .  A
C704        C709   1.446       .  S
C705        C706   1.403       .  A
C705        C712   1.455       .  S
C706        C707   1.399       .  A
C707        C708   1.408       .  A
C707        C710   1.457       .  S
C708        C711   1.455       .  S
C709        N716   1.158   1_556  T
C710        N715   1.157       .  T
C711        N713   1.158       .  T
C712        N714   1.157       .  T
C717        C718   1.414       .  A
C718        C719   1.409       .  A
C718        C723   1.449       .  S
C719        C720   1.440       .  A
C719        C726   1.448       .  S
C721        C722   1.435       .  A
C721        C724   1.451       .  S
C722        C725   1.458       .  S
C723        N730   1.158       .  T
C724        N729   1.158       .  T
C725        N727   1.157       .  T
C726        N728   1.157       .  T
C731        C732   1.403       .  A
C731        C736   1.403       .  A
C732        C733   1.409       .  A
C732        C737   1.462       .  S
C733        C734   1.449       .  A
C733        C740   1.451       .  S
C734        C735   1.446       .  A
C735        C736   1.421       .  A
C735        C738   1.448       .  S
C736        C739   1.454       .  S
C737        N744   1.158       .  T
C738        N743   1.157       .  T
C739        N741   1.157       .  T
C740        N742   1.157       .  T
C745        C746   1.392       .  A
C745        C750   1.398       .  A
C746        C747   1.410       .  A
C746        C751   1.459       .  S
C747        C748   1.457       .  A
C747        C754   1.452       .  S
C748        C749   1.446       .  A
C749        C750   1.418       .  A
C749        C752   1.449       .  S
C750        C753   1.453       .  S
C751        N758   1.157       .  T
C752        N757   1.157       .  T
C753        N755   1.157       .  T
C754        N756   1.158       .  T
C759        C760   1.395       .  A
C759        C764   1.399       .  A
C760        C761   1.410       .  A
C760        C765   1.457       .  S
C761        C762   1.453       .  A
C761        C768   1.451   1_556  S
C762        C763   1.446       .  A
C763        C764   1.415       .  A
C763        C766   1.451       .  S
C764        C767   1.453       .  S
C765        N772   1.157       .  T
C766        N771   1.157       .  T
C767        N769   1.157       .  T
C768        N770   1.158       .  T
C773        C774   1.414       .  A
C773        C778   1.413       .  A
C774        C775   1.417       .  A
C774        C779   1.457       .  S
C775        C776   1.444       .  A
C775        C782   1.452       .  S
C776        C777   1.443       .  A
C777        C778   1.422       .  A
C777        C780   1.450       .  S
C778        C781   1.454       .  S
C779        N786   1.158       .  T
C780        N785   1.157       .  T
C781        N783   1.158       .  T
C782        N784   1.158       .  T
C787        C792   1.436       .  A
C788        C789   1.429       .  A
C788        C793   1.455       .  S
C789        C796   1.454       .  S
C790        C791   1.439       .  A
C791        C792   1.436       .  A
C791        C794   1.452       .  S
C792        C795   1.453       .  S
C793        N800   1.159       .  T
C794        N799   1.157       .  T
C795        N797   1.157       .  T
C796        N798   1.158       .  T
C801        C802   1.399       .  A
C801        C806   1.404       .  A
C802        C803   1.421       .  A
C802        C807   1.457       .  S
C803        C804   1.453       .  A
C803        C810   1.443       .  S
C804        C805   1.449       .  A
C805        C806   1.415       .  A
C805        C808   1.451       .  S
C806        C809   1.458       .  S
C807        N814   1.157       .  T
C808        N813   1.157       .  T
C809        N811   1.158       .  T
C810        N812   1.156       .  T
C815        C816   1.447       .  A
C815        C820   1.454       .  A
C816        C817   1.419       .  A
C816        C821   1.452       .  S
C817        C818   1.408       .  A
C817        C824   1.454       .  S
C818        C819   1.403       .  A
C819        C820   1.417       .  A
C819        C822   1.457       .  S
C820        C823   1.450       .  S
C822        N827   1.157       .  T
C823        N825   1.158       .  T
C824        N826   1.157       .  T
C829        C830   1.453       .  A
C829        C834   1.443       .  A
C830        C831   1.411       .  A
C830        C835   1.452   1_556  S
C831        C832   1.395       .  A
C831        C838   1.455       .  S
C832        C833   1.403       .  A
C833        C834   1.423       .  A
C833        C836   1.452       .  S
C834        C837   1.448       .  S
C835        N842   1.158       .  T
C836        N841   1.157       .  T
C837        N839   1.157       .  T
C838        N840   1.156       .  T
C843        C844   1.448       .  A
C843        C848   1.444       .  A
C844        C845   1.410       .  A
C844        C849   1.452       .  S
C845        C846   1.407       .  A
C845        C852   1.456       .  S
C846        C847   1.409       .  A
C847        C848   1.420       .  A
C847        C850   1.454       .  S
C848        C851   1.444       .  S
C849        N856   1.157       .  T
C850        N855   1.157       .  T
C851        N853   1.156       .  T
C852        N854   1.158       .  T
C857        C858   1.440       .  A
C858        C859   1.426       .  A
C858        C863   1.451       .  S
C859        C866   1.455       .  S
C860        C861   1.434       .  A
C861        C862   1.436       .  A
C861        C864   1.453   1_554  S
C862        C865   1.448       .  S
C863        N870   1.157       .  T
C864        N869   1.157       .  T
C865        N867   1.157       .  T
C866        N868   1.158       .  T
C871        C872   1.408       .  A
C871        C876   1.395       .  A
C872        C873   1.428       .  A
C872        C877   1.451       .  S
C873        C874   1.443       .  A
C873        C880   1.448       .  S
C874        C875   1.440       .  A
C875        C876   1.401       .  A
C875        C878   1.452       .  S
C876        C879   1.442       .  S
C877        N884   1.157       .  T
C879        N881   1.152       .  T
C880        N882   1.157       .  T
C885        C886   1.411       .  A
C885        C890   1.407       .  A
C886        C887   1.414       .  A
C886        C891   1.460       .  S
C887        C888   1.448       .  A
C887        C894   1.452       .  S
C888        C889   1.447       .  A
C889        C890   1.426       .  A
C889        C892   1.444       .  S
C890        C893   1.454       .  S
C891        N898   1.158       .  T
C892        N897   1.157       .  T
C893        N895   1.157       .  T
C894        N896   1.157   1_556  T
C899        C900   1.447       .  A
C899        C904   1.442       .  A
C900        C901   1.427       .  A
C900        C905   1.447       .  S
C901        C902   1.404       .  A
C901        C908   1.452       .  S
C902        C903   1.395       .  A
C903        C904   1.406       .  A
C903        C906   1.444       .  S
C904        C907   1.450   1_556  S
C905        N912   1.157       .  T
C906        N911   1.153       .  T
C908        N910   1.157       .  T
C913        C914   1.405       .  A
C913        C918   1.410       .  A
C914        C915   1.424       .  A
C914        C919   1.453       .  S
C915        C916   1.445       .  A
C915        C922   1.441       .  S
C916        C917   1.449       .  A
C917        C918   1.418       .  A
C917        C920   1.449       .  S
C918        C921   1.459       .  S
C919        N926   1.158       .  T
C920        N925   1.158       .  T
C921        N923   1.158       .  T
C922        N924   1.157       .  T
C927        C928   1.431       .  A
C928        C929   1.418       .  A
C928        C933   1.443       .  S
C929        C930   1.433       .  A
C929        C936   1.447       .  S
C931        C932   1.437       .  A
C931        C934   1.454       .  S
C932        C935   1.451       .  S
C933        N940   1.156       .  T
C934        N939   1.157       .  T
C935        N937   1.157       .  T
C936        N938   1.159       .  T
C941        C942   1.452       .  A
C941        C946   1.449       .  A
C942        C943   1.418       .  A
C942        C947   1.455       .  S
C943        C944   1.404       .  A
C943        C950   1.454       .  S
C944        C945   1.401       .  A
C945        C946   1.411       .  A
C945        C948   1.457       .  S
C946        C949   1.450       .  S
C947        N954   1.158       .  T
C948        N953   1.158       .  T
C949        N951   1.158       .  T
C950        N952   1.157       .  T
C955        C956   1.448       .  A
C955        C960   1.447       .  A
C956        C957   1.414       .  A
C956        C961   1.452       .  S
C957        C958   1.406       .  A
C957        C964   1.457       .  S
C958        C959   1.407       .  A
C959        C960   1.426       .  A
C959        C962   1.455       .  S
C960        C963   1.445       .  S
C962        N967   1.157       .  T
C963        N965   1.157       .  T
C964        N966   1.158       .  T
C969        C970   1.407       .  A
C970        C971   1.421       .  A
C970        C975   1.457       .  S
C971        C972   1.444       .  A
C971        C978   1.447       .  S
C973        C974   1.425       .  A
C973        C976   1.447       .  S
C974        C977   1.460       .  S
C975        N982   1.158       .  T
C976        N981   1.158       .  T
C977        N979   1.158       .  T
C978        N980   1.156       .  T
C983        C988   1.405       .  A
C984        C985   1.420       .  A
C984        C989   1.453       .  S
C985        C992   1.451       .  S
C986        C987   1.455       .  A
C987        C988   1.425       .  A
C987        C990   1.452       .  S
C988        C991   1.455       .  S
C989        N996   1.156       .  T
C990        N995   1.158       .  T
C991        N993   1.157       .  T
C992        N994   1.157       .  T
C997       C1002   1.401       .  A
C998        C999   1.414       .  A
C998       C1003   1.455       .  S
C999       C1006   1.455       .  S
C1000      C1001   1.453       .  A
C1001      C1002   1.418       .  A
C1001      C1004   1.449       .  S
C1002      C1005   1.459       .  S
C1003      N1010   1.157       .  T
C1004      N1009   1.158       .  T
C1005      N1007   1.157       .  T
C1006      N1008   1.156       .  T
C1011      C1012   1.440       .  A
C1012      C1013   1.408       .  A
C1012      C1017   1.445       .  S
C1013      C1014   1.400       .  A
C1013      C1020   1.449       .  S
C1015      C1016   1.425       .  A
C1015      C1018   1.454       .  S
C1016      C1019   1.447       .  S
C1017      N1024   1.156       .  T
C1018      N1023   1.157       .  T
C1019      N1021   1.157       .  T
C1020      N1022   1.155       .  T
C1025      C1030   1.420       .  A
C1026      C1027   1.408       .  A
C1026      C1031   1.454       .  S
C1027      C1034   1.454       .  S
C1028      C1029   1.420       .  A
C1029      C1030   1.405       .  A
C1029      C1032   1.454       .  S
C1030      C1033   1.455       .  S
C1031      N1038   1.158       .  T
C1032      N1037   1.158       .  T
C1033      N1035   1.158       .  T
C1034      N1036   1.158       .  T
C1039      C1040   1.455       .  A
C1040      C1041   1.425       .  A
C1040      C1045   1.449       .  S
C1041      C1042   1.407       .  A
C1041      C1048   1.458       .  S
C1043      C1044   1.423       .  A
C1043      C1046   1.455       .  S
C1044      C1047   1.451       .  S
C1045      N1052   1.158       .  T
C1046      N1051   1.158       .  T
C1047      N1049   1.157       .  T
C1048      N1050   1.158       .  T
C1053      C1054   1.455       .  A
C1054      C1055   1.425       .  A
C1054      C1059   1.449       .  S
C1055      C1062   1.459       .  S
C1056      C1057   1.413       .  A
C1057      C1058   1.424       .  A
C1057      C1060   1.455       .  S
C1058      C1061   1.452       .  S
C1059      N1066   1.158       .  T
C1060      N1065   1.158       .  T
C1061      N1063   1.157       .  T
C1062      N1064   1.158       .  T
C1067      C1072   1.421       .  A
C1068      C1069   1.407       .  A
C1068      C1073   1.453       .  S
C1069      C1076   1.454       .  S
C1070      C1071   1.416       .  A
C1071      C1072   1.410       .  A
C1071      C1074   1.454       .  S
C1072      C1075   1.453       .  S
C1073      N1080   1.158       .  T
C1074      N1079   1.157       .  T
C1075      N1077   1.158       .  T
C1076      N1078   1.157       .  T
C1081      C1082   1.408   1_554  A
C1082      C1083   1.426       .  A
C1082      C1087   1.456       .  S
C1083      C1084   1.452   1_556  A
C1083      C1090   1.448       .  S
C1085      C1086   1.414       .  A
C1085      C1088   1.453       .  S
C1086      C1089   1.453       .  S
C1087      N1094   1.157       .  T
C1088      N1093   1.157       .  T
C1089      N1091   1.158       .  T
C1090      N1092   1.158       .  T
C1095      C1096   1.440       .  A
C1096      C1097   1.419       .  A
C1096      C1101   1.453       .  S
C1097      C1098   1.415       .  A
C1097      C1104   1.453       .  S
C1099      C1100   1.412       .  A
C1099      C1102   1.454       .  S
C1100      C1103   1.452       .  S
C1101      N1108   1.157       .  T
C1102      N1107   1.157       .  T
C1103      N1105   1.158       .  T
C1104      N1106   1.157       .  T
C1109      C1110   1.416       .  A
C1110      C1111   1.408       .  A
C1110      C1115   1.453       .  S
C1111      C1118   1.451       .  S
C1112      C1113   1.413       .  A
C1113      C1114   1.415   1_556  A
C1113      C1116   1.447       .  S
C1114      C1117   1.449       .  S
C1115      N1122   1.157       .  T
C1116      N1121   1.157   1_566  T
C1117      N1119   1.157   1_655  T
C1118      N1120   1.157       .  T
C1123      C1128   1.416   1_554  A
C1124      C1125   1.409       .  A
C1124      C1129   1.453       .  S
C1125      C1126   1.415       .  A
C1125      C1132   1.450       .  S
C1127      C1128   1.410       .  A
C1127      C1130   1.452       .  S
C1128      C1131   1.453       .  S
C1129      N1136   1.157       .  T
C1130      N1135   1.158       .  T
C1131      N1133   1.157       .  T
C1132      N1134   1.157   1_565  T
