geometry optimzed in LAMMPS
_audit_creation_date              2020-11-30 
_audit_creation_method            'lammps2cif' 
_symmetry_space_group_name_H-M    'P1' 
_symmetry_Int_Tables_number       1 
_symmetry_cell_setting            triclinic 
loop_ 
_symmetry_equiv_pos_as_xyz 
  x,y,z 
_cell_length_a                    52.67154184 
_cell_length_b                    52.41416606861979 
_cell_length_c                    52.33545145245185 
_cell_angle_alpha                 89.90664252055156 
_cell_angle_beta                  89.84673155170826 
_cell_angle_gamma                 89.93888369643517 
loop_ 
_atom_site_label 
_atom_site_type_symbol 
_atom_site_fract_x 
_atom_site_fract_y 
_atom_site_fract_z 
_atom_site_charge 
O1          O  0.52106630  0.63300805  0.98719278    -0.72100
O2          O  0.47116488  0.68509212  0.98692299    -0.72300
O3          O  0.52270402  0.68353496  0.98533810    -0.72200
O4          O  0.46998975  0.63438473  0.98876776    -0.72200
O5          O  0.47160134  0.63518067  0.03020618    -0.72200
O6          O  0.52332877  0.68557742  0.02683533    -0.72200
O7          O  0.47161938  0.68586658  0.02846867    -0.72100
O8          O  0.52280713  0.63479488  0.02859926    -0.72300
V9          V  0.49623812  0.65917884  0.98787455     1.35200
V10         V  0.49733405  0.66048431  0.02773231     1.35200
C11         C  0.53087129  0.62539096  0.00786055     0.77100
C12         C  0.46156570  0.69270801  0.00767953     0.77200
C13         C  0.53298666  0.69156841  0.00553424     0.77100
C14         C  0.46166563  0.62647891  0.01004099     0.77000
C15         C  0.77465668  0.53158867  0.99388946     0.86200
C16         C  0.79364072  0.53033007  0.01623530    -0.54100
C17         C  0.80846288  0.50881670  0.01638599     0.09100
C18         C  0.80295925  0.49041269  0.99402668     0.20000
C19         C  0.79131632  0.52842872  0.96994260    -0.54800
C20         C  0.80613696  0.50687143  0.96963325     0.09200
C21         C  0.75974642  0.50660113  0.99598402    -0.54300
C22         C  0.77432223  0.48517332  0.99592459     0.09800
H23         H  0.79586215  0.54501945  0.03054872     0.14300
H24         H  0.81434039  0.47262328  0.99445422     0.00000
H25         H  0.79155639  0.54264648  0.95486108     0.14600
H26         H  0.73912802  0.50587387  0.99684064     0.14400
C27         C  0.60481518  0.69894902  0.00453840     0.86200
C28         C  0.60421309  0.71911471  0.98323303    -0.54100
C29         C  0.58410005  0.73572324  0.98450871     0.09100
C30         C  0.56604876  0.73035070  0.00717682     0.20000
C31         C  0.60351212  0.71449313  0.02947112    -0.54800
C32         C  0.58335358  0.73106262  0.03092516     0.09200
C33         C  0.57870534  0.68596180  0.00306420    -0.54300
C34         C  0.55865313  0.70222439  0.00445220     0.09800
H35         H  0.61858193  0.71998214  0.96834703     0.14300
H36         H  0.54936474  0.74322114  0.00834450     0.00000
H37         H  0.61778126  0.71292220  0.04431857     0.14600
H38         H  0.57546553  0.66562141  0.00215263     0.14400
O39         O  0.70230801  0.44870770  0.01308551    -0.72100
O40         O  0.75453344  0.39913598  0.01696792    -0.72300
O41         O  0.75260535  0.45108499  0.01624738    -0.72200
O42         O  0.70411516  0.39742449  0.01362782    -0.72200
O43         O  0.70533668  0.39864210  0.97217988    -0.72200
O44         O  0.75698567  0.44919553  0.97496847    -0.72200
O45         O  0.75585379  0.39725245  0.97547134    -0.72100
O46         O  0.70649316  0.45006240  0.97181750    -0.72300
V47         V  0.72860322  0.42408164  0.01419209     1.35200
V48         V  0.73125659  0.42378472  0.97439951     1.35200
C49         C  0.69585795  0.45826869  0.99189236     0.77100
C50         C  0.76258594  0.38847956  0.99690681     0.77200
C51         C  0.76203086  0.46003206  0.99588908     0.77100
C52         C  0.69625889  0.38900887  0.99242111     0.77000
C53         C  0.60630996  0.15147155  0.00379056     0.86200
C54         C  0.60740030  0.13089280  0.02484889    -0.54100
C55         C  0.58860420  0.11293070  0.02321269     0.09100
C56         C  0.57028541  0.11706947  0.00066900     0.20000
C57         C  0.60652266  0.13613125  0.97884232    -0.54800
C58         C  0.58812870  0.11771429  0.97715833     0.09200
C59         C  0.57946276  0.16229817  0.00573540    -0.54300
C60         C  0.56063836  0.14462576  0.00394877     0.09800
H61         H  0.62161638  0.12990703  0.03969086     0.14300
H62         H  0.55498072  0.10259087  0.99960117     0.00000
H63         H  0.62063275  0.13939385  0.96404736     0.14600
H64         H  0.57560191  0.18259557  0.00758482     0.14400
C65         C  0.77675314  0.31752071  0.00336375     0.86200
C66         C  0.79489232  0.31777170  0.98042638    -0.54100
C67         C  0.80922077  0.33951662  0.97800668     0.09100
C68         C  0.80408476  0.35915776  0.99948678     0.20000
C69         C  0.79396591  0.32257948  0.02652276    -0.54800
C70         C  0.80815087  0.34437038  0.02469030     0.09200
C71         C  0.76117645  0.34208913  0.00079011    -0.54300
C72         C  0.77530934  0.36369827  0.99861768     0.09800
H73         H  0.79625955  0.30171298  0.96744305     0.14300
H74         H  0.81507674  0.37713656  0.99801137     0.00000
H75         H  0.79499920  0.31048860  0.04322977     0.14600
H76         H  0.74053300  0.34242730  0.00086958     0.14400
O77         O  0.51951233  0.21203271  0.02179353    -0.72100
O78         O  0.47167969  0.15778195  0.02010169    -0.72300
O79         O  0.52347129  0.16150068  0.02305926    -0.72200
O80         O  0.46840506  0.20832696  0.01867133    -0.72200
O81         O  0.47271270  0.20917489  0.97741407    -0.72200
O82         O  0.52438201  0.15879720  0.98161996    -0.72200
O83         O  0.47265131  0.15870069  0.97857583    -0.72100
O84         O  0.52388956  0.20957546  0.98061601    -0.72300
V85         V  0.49584497  0.18471489  0.02014182     1.35200
V86         V  0.49838862  0.18390875  0.98036443     1.35200
C87         C  0.53040829  0.21959480  0.00157959     0.77100
C88         C  0.46221132  0.15115117  0.99897945     0.77200
C89         C  0.53424890  0.15357894  0.00296131     0.77100
C90         C  0.46107411  0.21665498  0.99720042     0.77000
C91         C  0.22311549  0.31559673  0.99463281     0.86200
C92         C  0.20376916  0.31466401  0.01659336    -0.54100
C93         C  0.18796936  0.33540148  0.01795455     0.09100
C94         C  0.19248054  0.35504004  0.99638743     0.20000
C95         C  0.20673844  0.31899504  0.97049274    -0.54800
C96         C  0.19074193  0.33960488  0.97136451     0.09200
C97         C  0.23652550  0.34126186  0.99770629    -0.54300
C98         C  0.22070706  0.36177163  0.99862671     0.09800
H99         H  0.20311772  0.29904465  0.03023101     0.14300
H100        H  0.17994620  0.37206498  0.99707818     0.00000
H101        H  0.20703007  0.30631500  0.95420746     0.14600
H102        H  0.25706586  0.34311660  0.99859449     0.14400
C103        C  0.39045450  0.14506660  0.99403940     0.86200
C104        C  0.39239055  0.12352738  0.97409377    -0.54100
C105        C  0.41200306  0.10691757  0.97823217     0.09100
C106        C  0.42807749  0.11315308  0.00191168     0.20000
C107        C  0.38889159  0.13073937  0.01964301    -0.54800
C108        C  0.40836334  0.11385242  0.02378856     0.09200
C109        C  0.41671101  0.15740616  0.99390485    -0.54300
C110        C  0.43631591  0.14097751  0.99804918     0.09800
H111        H  0.37931029  0.12062835  0.95847129     0.14300
H112        H  0.44402373  0.09964069  0.00502049     0.00000
H113        H  0.37327922  0.13331194  0.03298858     0.14600
H114        H  0.41955831  0.17774101  0.99098594     0.14400
C115        C  0.22090626  0.53077892  0.99851471     0.86200
C116        C  0.20461226  0.52882967  0.97420464    -0.54100
C117        C  0.18972044  0.50742867  0.97306496     0.09100
C118        C  0.19235109  0.48989142  0.99674015     0.20000
C119        C  0.20158400  0.52879797  0.02041609    -0.54800
C120        C  0.18659854  0.50740934  0.01992276     0.09200
C121        C  0.23566947  0.50562607  0.99928516    -0.54300
C122        C  0.22099370  0.48434041  0.99843054     0.09800
H123        H  0.20412871  0.54311707  0.95929686     0.14300
H124        H  0.18085116  0.47221352  0.99586113     0.00000
H125        H  0.19979943  0.54360775  0.03476701     0.14600
H126        H  0.25626754  0.50471269  0.00038752     0.14400
C127        C  0.39000952  0.69877707  0.00345648     0.86200
C128        C  0.38815011  0.71921560  0.02437459    -0.54100
C129        C  0.40792176  0.73628039  0.02461943     0.09100
C130        C  0.42803909  0.73104387  0.00374130     0.20000
C131        C  0.39318258  0.71398662  0.97847744    -0.54800
C132        C  0.41285227  0.73106644  0.97856347     0.09200
C133        C  0.41610210  0.68642031  0.00745510    -0.54300
C134        C  0.43580716  0.70310725  0.00762518     0.09800
H135        H  0.37239921  0.71999904  0.03776871     0.14300
H136        H  0.44443463  0.74429472  0.00370355     0.00000
H137        H  0.38038616  0.71185229  0.96240135     0.14600
H138        H  0.41963770  0.66610724  0.00839348     0.14400
O139        O  0.29219756  0.44607079  0.97955980    -0.72100
O140        O  0.23888064  0.39767727  0.97882996    -0.72300
O141        O  0.24163156  0.44949325  0.97827783    -0.72200
O142        O  0.28923429  0.39484958  0.98031368    -0.72200
O143        O  0.28930572  0.39666457  0.02174991    -0.72200
O144        O  0.23919219  0.44884374  0.01975317    -0.72200
O145        O  0.23892763  0.39675041  0.02037719    -0.72100
O146        O  0.28989496  0.44804810  0.02093790    -0.72300
V147        V  0.26530527  0.42209080  0.98005065     1.35200
V148        V  0.26418161  0.42261892  0.01991426     1.35200
C149        C  0.30001389  0.45553342  0.00028956     0.77100
C150        C  0.23169491  0.38736377  0.99940199     0.77200
C151        C  0.23321189  0.45911555  0.99875367     0.77100
C152        C  0.29737671  0.38639671  0.00142976     0.77000
O153        O  0.53514530  0.95156639  0.71405454    -0.72100
O154        O  0.48333286  0.94345772  0.76383195    -0.72300
O155        O  0.53483018  0.94342583  0.76445645    -0.72200
O156        O  0.48401730  0.95137960  0.71350732    -0.72200
O157        O  0.48462619  0.91049759  0.70692506    -0.72200
O158        O  0.53499334  0.90245947  0.75792946    -0.72200
O159        O  0.48323780  0.90252740  0.75701660    -0.72100
O160        O  0.53562784  0.91062896  0.70777571    -0.72300
V161        V  0.50935589  0.94664301  0.73897673     1.35200
V162        V  0.50961196  0.90730513  0.73271160     1.35200
C163        C  0.54437700  0.93249031  0.70254332     0.77100
C164        C  0.47335779  0.92187797  0.76742679     0.77200
C165        C  0.54454434  0.92176146  0.76861930     0.77100
C166        C  0.47555103  0.93219414  0.70160989     0.77000
C167        C  0.77819496  0.94007206  0.60466690     0.86200
C168        C  0.79779844  0.91824825  0.60369628    -0.54100
C169        C  0.81362228  0.91895194  0.58290640     0.09100
C170        C  0.80877698  0.94194064  0.56509001     0.20000
C171        C  0.79424428  0.96445270  0.60317865    -0.54800
C172        C  0.81026234  0.96570738  0.58251332     0.09200
C173        C  0.76477867  0.93854795  0.57877532    -0.54300
C174        C  0.78061810  0.93972022  0.55822370     0.09800
H175        H  0.79931700  0.90326254  0.61779609     0.14300
H176        H  0.82114735  0.94259929  0.54792062     0.00000
H177        H  0.79310209  0.97926126  0.61760897     0.14600
H178        H  0.74429761  0.93691193  0.57681324     0.14400
C179        C  0.61556349  0.92311899  0.77987134     0.86200
C180        C  0.61196174  0.94779113  0.79529918    -0.54100
C181        C  0.59115604  0.94787455  0.81108969     0.09100
C182        C  0.57526603  0.92325053  0.80942895     0.20000
C183        C  0.61545268  0.90184968  0.80026098    -0.54800
C184        C  0.59452888  0.90197848  0.81589154     0.09200
C185        C  0.59051962  0.91944312  0.76566372    -0.54300
C186        C  0.56949899  0.91990035  0.78081692     0.09800
H187        H  0.62527083  0.96356416  0.79421064     0.14300
H188        H  0.55816518  0.92321369  0.82185009     0.00000
H189        H  0.63034912  0.88785578  0.80268411     0.14600
H190        H  0.58936366  0.91810067  0.74496377     0.14400
O191        O  0.71392253  0.95764489  0.46887731    -0.72100
O192        O  0.76296854  0.95959156  0.52183210    -0.72300
O193        O  0.76428370  0.95981077  0.46963165    -0.72200
O194        O  0.71259843  0.95732125  0.52056776    -0.72200
O195        O  0.71377345  0.91593545  0.51936736    -0.72200
O196        O  0.76694580  0.91841737  0.47051411    -0.72200
O197        O  0.76390708  0.91810512  0.52249771    -0.72100
O198        O  0.71668030  0.91632227  0.46795926    -0.72300
V199        V  0.73862966  0.95781800  0.49523250     1.35200
V200        V  0.74043172  0.91802415  0.49509605     1.35200
C201        C  0.70743676  0.93668341  0.45890723     0.77100
C202        C  0.77007191  0.93913656  0.53240985     0.77200
C203        C  0.77300285  0.93937170  0.46026713     0.77100
C204        C  0.70458608  0.93610290  0.52886644     0.77000
C205        C  0.22567862  0.92848487  0.61575243     0.86200
C206        C  0.20935618  0.95274650  0.61553781    -0.54100
C207        C  0.19428840  0.95549099  0.59437922     0.09100
C208        C  0.19679485  0.93315087  0.57522876     0.20000
C209        C  0.20643323  0.90660245  0.61224206    -0.54800
C210        C  0.19149248  0.90882780  0.59098539     0.09200
C211        C  0.24024486  0.92914991  0.59040829    -0.54300
C212        C  0.22532352  0.93163426  0.56935957     0.09800
H213        H  0.20975282  0.96650514  0.63101448     0.14300
H214        H  0.18504112  0.93503126  0.55775622     0.00000
H215        H  0.20455558  0.89039953  0.62488910     0.14600
H216        H  0.26080266  0.92760276  0.58916790     0.14400
C217        C  0.40190931  0.92122659  0.77672921     0.86200
C218        C  0.40273856  0.89798141  0.79495017    -0.54100
C219        C  0.42337759  0.89779114  0.81094601     0.09100
C220        C  0.44135579  0.92066972  0.80711546     0.20000
C221        C  0.40357155  0.94431262  0.79470540    -0.54800
C222        C  0.42406558  0.94406793  0.81071128     0.09200
C223        C  0.42746678  0.92043878  0.76288910    -0.54300
C224        C  0.44796561  0.92024648  0.77858361     0.09800
H225        H  0.38812999  0.88353526  0.79621544     0.14300
H226        H  0.45829242  0.92037606  0.81968237     0.00000
H227        H  0.38946956  0.95944250  0.79482096     0.14600
H228        H  0.42925213  0.92074553  0.74218107     0.14400
O229        O  0.29548492  0.94963329  0.53313047    -0.72100
O230        O  0.24435618  0.95373476  0.48242031    -0.72300
O231        O  0.24510365  0.95233182  0.53444883    -0.72200
O232        O  0.29464338  0.95102030  0.48172495    -0.72200
O233        O  0.29257658  0.90965684  0.48070961    -0.72200
O234        O  0.24308906  0.91089592  0.53349389    -0.72200
O235        O  0.24218485  0.91231022  0.48143953    -0.72100
O236        O  0.29354772  0.90826905  0.53208404    -0.72300
V237        V  0.26970291  0.95087087  0.50792842     1.35200
V238        V  0.26771042  0.91108891  0.50696432     1.35200
C239        C  0.30313826  0.92830137  0.54140935     0.77100
C240        C  0.23609368  0.93367272  0.47206582     0.77200
C241        C  0.23703821  0.93172658  0.54397576     0.77100
C242        C  0.30191847  0.93015246  0.47207584     0.77000
C243        C  0.39187948  0.92391416  0.22792227     0.86200
C244        C  0.39225781  0.94829274  0.21163292    -0.54100
C245        C  0.41256718  0.95025858  0.19533007     0.09100
C246        C  0.43096348  0.92734765  0.19693267     0.20000
C247        C  0.39363476  0.90217019  0.20819131    -0.54800
C248        C  0.41389474  0.90395401  0.19179459     0.09200
C249        C  0.41761824  0.92345637  0.24132122    -0.54300
C250        C  0.43798607  0.92540108  0.22537120     0.09800
H251        H  0.37764187  0.96282703  0.21318547     0.14300
H252        H  0.44758103  0.92872347  0.18394762     0.00000
H253        H  0.38026811  0.88662799  0.20679951     0.14600
H254        H  0.41957516  0.92248118  0.26198137     0.14400
C255        C  0.22606531  0.93547130  0.40020608     0.86200
C256        C  0.20762587  0.91269195  0.40163003    -0.54100
C257        C  0.19204651  0.91290594  0.42258299     0.09100
C258        C  0.19629957  0.93590015  0.44040032     0.20000
C259        C  0.20868797  0.95894708  0.40189315    -0.54800
C260        C  0.19304836  0.95961607  0.42295707     0.09200
C261        C  0.24009455  0.93475112  0.42571600    -0.54300
C262        C  0.22472194  0.93497741  0.44661494     0.09800
H263        H  0.20608825  0.89789432  0.38735599     0.14300
H264        H  0.18440598  0.93550850  0.45787055     0.00000
H265        H  0.20866825  0.97331745  0.38698986     0.14600
H266        H  0.26067372  0.93395556  0.42715917     0.14400
C267        C  0.60685978  0.92548501  0.22761096     0.86200
C268        C  0.60533187  0.90253640  0.20942214    -0.54100
C269        C  0.58484913  0.90293473  0.19326100     0.09100
C270        C  0.56765395  0.92656716  0.19684054     0.20000
C271        C  0.60594119  0.94895852  0.20992534    -0.54800
C272        C  0.58563016  0.94951804  0.19364898     0.09200
C273        C  0.58095243  0.92585157  0.24123885    -0.54300
C274        C  0.56066730  0.92642036  0.22522101     0.09800
H275        H  0.61964773  0.88762750  0.20908158     0.14300
H276        H  0.55079048  0.92695858  0.18420570     0.00000
H277        H  0.62025966  0.96383923  0.21031168     0.14600
H278        H  0.57811194  0.92660374  0.26169883     0.14400
C279        C  0.78246780  0.93554652  0.38836654     0.86200
C280        C  0.79936194  0.95952597  0.38762049    -0.54100
C281        C  0.81512239  0.96223234  0.40833620     0.09100
C282        C  0.81273198  0.94004853  0.42780926     0.20000
C283        C  0.80139778  0.91347310  0.39136277    -0.54800
C284        C  0.81734295  0.91557767  0.41189331     0.09200
C285        C  0.76879848  0.93720233  0.41409811    -0.54300
C286        C  0.78435054  0.93935799  0.43464175     0.09800
H287        H  0.79958592  0.97288485  0.37190313     0.14300
H288        H  0.82490440  0.94167608  0.44496639     0.00000
H289        H  0.80234930  0.89779418  0.37786282     0.14600
H290        H  0.74825410  0.93623596  0.41598495     0.14400
O291        O  0.47344650  0.95752601  0.29005099    -0.72100
O292        O  0.52511838  0.94988401  0.23975413    -0.72300
O293        O  0.47331273  0.94933344  0.23974456    -0.72200
O294        O  0.52476043  0.95801693  0.28990527    -0.72200
O295        O  0.52557020  0.91704905  0.29606797    -0.72200
O296        O  0.47341718  0.90848777  0.24710908    -0.72200
O297        O  0.52513958  0.90887812  0.24621453    -0.72100
O298        O  0.47453445  0.91668761  0.29699482    -0.72300
V299        V  0.49915383  0.95290522  0.26484141     1.35200
V300        V  0.49963177  0.91358222  0.27130646     1.35200
C301        C  0.46501779  0.93826564  0.30193603     0.77100
C302        C  0.53508539  0.92827538  0.23600384     0.77200
C303        C  0.46343602  0.92762454  0.23642882     0.77100
C304        C  0.53436859  0.93889091  0.30108662     0.77000
O305        O  0.00935003  0.40917794  0.70423328    -0.72100
O306        O  0.01724072  0.46262242  0.75204377    -0.72300
O307        O  0.01583284  0.41051742  0.75453367    -0.72200
O308        O  0.01066671  0.46008807  0.70167810    -0.72200
O309        O  0.97026145  0.46386674  0.70942558    -0.72200
O310        O  0.97468483  0.40997915  0.75794435    -0.72200
O311        O  0.97666205  0.46195514  0.75982596    -0.72100
O312        O  0.96835856  0.41238591  0.70751114    -0.72300
V313        V  0.01252118  0.43565151  0.72844987     1.35200
V314        V  0.97325794  0.43701460  0.73372448     1.35200
C315        C  0.98755664  0.40196215  0.69732627     0.77100
C316        C  0.99812468  0.47218480  0.76305348     0.77200
C317        C  0.99595414  0.40027807  0.76343640     0.77100
C318        C  0.98966122  0.47073406  0.69692712     0.77000
C319        C  0.99890153  0.71454248  0.60758405     0.86200
C320        C  0.02096581  0.73382954  0.60614010    -0.54100
C321        C  0.02008243  0.74969095  0.58523489     0.09100
C322        C  0.99704999  0.74471239  0.56764597     0.20000
C323        C  0.97501230  0.73124528  0.60630229    -0.54800
C324        C  0.97357288  0.74687057  0.58534236     0.09200
C325        C  0.99988245  0.70068282  0.58190205    -0.54300
C326        C  0.99880764  0.71625061  0.56113042     0.09800
H327        H  0.03573341  0.73546476  0.62036524     0.14300
H328        H  0.99650706  0.75681378  0.55027559     0.00000
H329        H  0.96063313  0.73067146  0.62116744     0.14600
H330        H  0.00098810  0.68004242  0.58026495     0.14400
C331        C  0.00259988  0.54355318  0.77624526     0.86200
C332        C  0.97794436  0.54250767  0.79187046    -0.54100
C333        C  0.97509292  0.52098435  0.80648121     0.09100
C334        C  0.99765870  0.50224637  0.80416434     0.20000
C335        C  0.02377019  0.53985104  0.79619563    -0.54800
C336        C  0.02151757  0.51812329  0.81066649     0.09200
C337        C  0.00297316  0.51860525  0.76097497    -0.54300
C338        C  0.00014977  0.49715423  0.77542808     0.05000
H339        H  0.96405065  0.55781414  0.79143561     0.14300
H340        H  0.99549350  0.48439992  0.81536755     0.00000
H341        H  0.03939418  0.55288883  0.79882478     0.14600
H342        H  0.00465383  0.51796284  0.74027777     0.14400
O343        O  0.01615899  0.64677256  0.52687328    -0.72100
O344        O  0.02180436  0.69604024  0.47385945    -0.72300
O345        O  0.01941069  0.69708824  0.52596479    -0.72200
O346        O  0.01872334  0.64567395  0.47507601    -0.72200
O347        O  0.97773251  0.64897317  0.47221135    -0.72200
O348        O  0.97816700  0.69878620  0.52500484    -0.72200
O349        O  0.98067457  0.69953000  0.47286733    -0.72100
O350        O  0.97505064  0.64815210  0.52378527    -0.72300
V351        V  0.01822594  0.67154977  0.50040277     1.35200
V352        V  0.97870180  0.67395997  0.49852016     1.35200
C353        C  0.99461825  0.63943611  0.53468673     0.77100
C354        C  0.00207389  0.70466605  0.46322538     0.77200
C355        C  0.99883661  0.70500775  0.53550299     0.77100
C356        C  0.99827076  0.63922410  0.46426584     0.77000
C357        C  0.99552692  0.54583004  0.21754865     0.86200
C358        C  0.01892583  0.54308563  0.19992509    -0.54100
C359        C  0.01866882  0.52161231  0.18501078     0.09100
C360        C  0.99493530  0.50482388  0.18886772     0.20000
C361        C  0.97272014  0.54430312  0.19935138    -0.54800
C362        C  0.97210018  0.52279441  0.18446965     0.09200
C363        C  0.99488791  0.52068902  0.23246653    -0.54300
C364        C  0.99445565  0.49941237  0.21766754     0.09800
H365        H  0.03457682  0.55641644  0.19909371     0.14300
H366        H  0.99483098  0.48715541  0.17720225     0.00000
H367        H  0.95814071  0.55894451  0.19868227     0.14600
H368        H  0.99494246  0.51976205  0.25323068     0.14400
C369        C  0.00381737  0.71076143  0.39067106     0.86200
C370        C  0.98120357  0.72931836  0.39120599    -0.54100
C371        C  0.98129577  0.74607597  0.41128435     0.09100
C372        C  0.00433966  0.74284381  0.42914288     0.20000
C373        C  0.02739695  0.72796592  0.39150571    -0.54800
C374        C  0.02790869  0.74474596  0.41156499     0.09200
C375        C  0.00335738  0.69805320  0.41719356    -0.54300
C376        C  0.00353160  0.71471229  0.43711333     0.09800
H377        H  0.96629024  0.72904374  0.37691955     0.14300
H378        H  0.00438091  0.75594355  0.44577564     0.00000
H379        H  0.04234646  0.72690233  0.37722882     0.14600
H380        H  0.00298495  0.67773953  0.42074683     0.14400
O381        O  0.01321988  0.46578677  0.28842221    -0.72100
O382        O  0.01825859  0.41339213  0.23868017    -0.72300
O383        O  0.01550938  0.46517429  0.23766049    -0.72200
O384        O  0.01613028  0.41450596  0.28923564    -0.72200
O385        O  0.97508994  0.41132728  0.28707551    -0.72200
O386        O  0.97424467  0.46384567  0.23682736    -0.72200
O387        O  0.97706374  0.41193597  0.23626247    -0.72100
O388        O  0.97212575  0.46270052  0.28765874    -0.72300
V389        V  0.01496618  0.43969334  0.26333564     1.35200
V390        V  0.97541393  0.43750989  0.26183226     1.35200
C391        C  0.99180919  0.47321434  0.29653514     0.77100
C392        C  0.99845435  0.40278100  0.23030925     0.77200
C393        C  0.99474722  0.47430500  0.22989025     0.77100
C394        C  0.99588654  0.40378577  0.29651659     0.77000
C395        C  0.00656719  0.15900807  0.60476005     0.86200
C396        C  0.98335827  0.14106823  0.60347377    -0.54100
C397        C  0.98320450  0.12524752  0.58268173     0.09100
C398        C  0.00638462  0.12874760  0.56488004     0.20000
C399        C  0.02951352  0.14093372  0.60325944    -0.54800
C400        C  0.02980069  0.12505834  0.58239330     0.09200
C401        C  0.00637728  0.17289460  0.57900467    -0.54300
C402        C  0.00633123  0.15729757  0.55823628     0.09800
H403        H  0.96837214  0.14025856  0.61760341     0.14300
H404        H  0.00599238  0.11655148  0.54760438     0.00000
H405        H  0.04398431  0.14063774  0.61796513     0.14600
H406        H  0.00598253  0.19357088  0.57731574     0.14400
C407        C  0.99693451  0.32852184  0.77551530     0.86200
C408        C  0.02071768  0.33033083  0.79241692    -0.54100
C409        C  0.02186617  0.35170051  0.80766092     0.09100
C410        C  0.99847896  0.36937747  0.80431085     0.20000
C411        C  0.97477711  0.33068850  0.79477621    -0.54800
C412        C  0.97556168  0.35194115  0.80984791     0.09200
C413        C  0.99636840  0.35366566  0.76066881    -0.54300
C414        C  0.99717062  0.37494483  0.77550107     0.09800
H415        H  0.03473221  0.31519216  0.79269225     0.14300
H416        H  0.99844885  0.38711833  0.81574127     0.00000
H417        H  0.96028359  0.31636424  0.79764370     0.14600
H418        H  0.99521021  0.35457795  0.73994597     0.14400
C419        C  0.00599614  0.16193059  0.38792369     0.86200
C420        C  0.03019113  0.14569997  0.39026598    -0.54100
C421        C  0.03089833  0.13000353  0.41124026     0.09100
C422        C  0.00667157  0.13171555  0.42787388     0.20000
C423        C  0.98422490  0.14224611  0.38849418    -0.54800
C424        C  0.98449132  0.12649565  0.40943490     0.09200
C425        C  0.00372020  0.17574536  0.41361569    -0.54300
C426        C  0.00411726  0.16004862  0.43436407     0.09800
H427        H  0.04534999  0.14664465  0.37622254     0.14300
H428        H  0.00672183  0.11957810  0.44524079     0.00000
H429        H  0.96980393  0.14047563  0.37394857     0.14600
H430        H  0.00222245  0.19636727  0.41529679     0.14400
C431        C  0.00119203  0.33126593  0.21864295     0.86200
C432        C  0.97852435  0.33267537  0.20019260    -0.54100
C433        C  0.97785244  0.35411103  0.18502237     0.09100
C434        C  0.00067514  0.37208418  0.18969603     0.20000
C435        C  0.02452802  0.33378385  0.20097078    -0.54800
C436        C  0.02432019  0.35509486  0.18577918     0.09200
C437        C  0.00037061  0.35638528  0.23339624    -0.54300
C438        C  0.00005763  0.37758547  0.21842837     0.09800
H439        H  0.96464066  0.31746696  0.19916321     0.14300
H440        H  0.00088388  0.38988961  0.17829925     0.00000
H441        H  0.03941174  0.31964744  0.19935927     0.14600
H442        H  0.99981469  0.35734279  0.25414734     0.14400
O443        O  0.01803637  0.22942888  0.47137576    -0.72100
O444        O  0.02444681  0.17827815  0.52248398    -0.72300
O445        O  0.02318469  0.17907123  0.47028251    -0.72200
O446        O  0.01948208  0.22855360  0.52269879    -0.72200
O447        O  0.97857144  0.22380193  0.52473069    -0.72200
O448        O  0.98202035  0.17579099  0.47053160    -0.72200
O449        O  0.98346787  0.17332153  0.52276661    -0.72100
O450        O  0.97699058  0.22613414  0.47345555    -0.72300
V451        V  0.02049912  0.20356049  0.49671361     1.35200
V452        V  0.98106427  0.19963569  0.49783339     1.35200
C453        C  0.99638563  0.23659694  0.46378409     0.77100
C454        C  0.00486275  0.16861142  0.53257522     0.77200
C455        C  0.00312147  0.17080630  0.46013153     0.77100
C456        C  0.99852464  0.23434418  0.53295502     0.77000
C457        C  0.00731761  0.18089177  0.36561276    -0.03500
C458        C  0.02715013  0.19893474  0.36531652    -0.06100
C459        C  0.02902599  0.21721493  0.34592766    -0.21200
C460        C  0.01098956  0.21827171  0.32632518     0.24500
C461        C  0.99132538  0.20013459  0.32617421    -0.18800
C462        C  0.98949149  0.18168768  0.34553540    -0.08700
C463        C  0.01371117  0.23808917  0.30607354    -0.19000
C464        C  0.99387375  0.24797529  0.29317420    -0.23800
C465        C  0.99650974  0.26865791  0.27380029     0.26600
C466        C  0.97619337  0.28551042  0.26998927    -0.20600
C467        C  0.97796420  0.30522837  0.25204805    -0.10200
C468        C  0.99993278  0.30843857  0.23694411    -0.10800
C469        C  0.02022239  0.29121636  0.24062803    -0.03700
C470        C  0.01849561  0.27159491  0.25878084    -0.18800
H471        H  0.04123340  0.19895548  0.38036378     0.10300
H472        H  0.04448265  0.23082432  0.34644414     0.10300
H473        H  0.97749339  0.19989995  0.31092591     0.10000
H474        H  0.97398232  0.16836288  0.34441275     0.11100
H475        H  0.03252992  0.24595976  0.30295024     0.11200
H476        H  0.97476479  0.24194500  0.29812306     0.13100
H477        H  0.95900162  0.28367758  0.28125014     0.09600
H478        H  0.96210905  0.31825427  0.25006169     0.11700
H479        H  0.03774868  0.29279638  0.23009000     0.08300
H480        H  0.03434725  0.25860583  0.26080991     0.11100
C481        C  0.00820671  0.17796598  0.62706816    -0.03500
C482        C  0.02872396  0.19519094  0.62776979    -0.06100
C483        C  0.03032675  0.21403397  0.64663001    -0.21200
C484        C  0.01157753  0.21628777  0.66561700     0.24500
C485        C  0.99146398  0.19855612  0.66556572    -0.18800
C486        C  0.98975500  0.17979299  0.64657208    -0.08700
C487        C  0.01408217  0.23713118  0.68505995    -0.19000
C488        C  0.99539448  0.24424242  0.70133602    -0.23800
C489        C  0.99716419  0.26525787  0.72063880     0.26600
C490        C  0.97646864  0.26892357  0.73718831    -0.20600
C491        C  0.97629513  0.28863470  0.75516208    -0.10200
C492        C  0.99701669  0.30549371  0.75735901    -0.10800
C493        C  0.01783211  0.30177762  0.74074956    -0.03700
C494        C  0.01800644  0.28196487  0.72271838    -0.18800
H495        H  0.04340001  0.19435278  0.61325449     0.10300
H496        H  0.04621617  0.22713382  0.64616856     0.10300
H497        H  0.97693631  0.19876058  0.68015386     0.10000
H498        H  0.97377396  0.16703110  0.64755124     0.11100
H499        H  0.03203255  0.24717556  0.68539347     0.11200
H500        H  0.97732790  0.23445585  0.70052024     0.13100
H501        H  0.96001139  0.25659929  0.73601073     0.09600
H502        H  0.95936604  0.29067687  0.76654778     0.11700
H503        H  0.03394367  0.31457650  0.74150430     0.08300
H504        H  0.03434444  0.28029729  0.71033116     0.11100
C505        C  0.99377268  0.25653828  0.44398359    -0.03500
C506        C  0.96971181  0.26607993  0.43745244    -0.06100
C507        C  0.96723694  0.28498509  0.41877635    -0.21200
C508        C  0.98867216  0.29451090  0.40600207     0.24500
C509        C  0.01280976  0.28503740  0.41264608    -0.18800
C510        C  0.01528736  0.26620136  0.43139244    -0.08700
C511        C  0.98516883  0.31503442  0.38673710    -0.19000
C512        C  0.00201888  0.31982709  0.36796950    -0.23800
C513        C  0.99946886  0.34132482  0.34970255     0.26600
C514        C  0.02160660  0.35124123  0.33861239    -0.20600
C515        C  0.02036628  0.37172293  0.32163325    -0.10200
C516        C  0.99686307  0.38253709  0.31505009    -0.10800
C517        C  0.97456635  0.37229880  0.32566890    -0.03700
C518        C  0.97582862  0.35188299  0.34289426    -0.18800
H519        H  0.95277843  0.25905018  0.44688505     0.10300
H520        H  0.94847880  0.29212856  0.41420541     0.10300
H521        H  0.02991500  0.29245211  0.40393627     0.10000
H522        H  0.03408726  0.25928297  0.43610053     0.11100
H523        H  0.96811306  0.32656170  0.38829295     0.11200
H524        H  0.01901233  0.30822809  0.36634235     0.13100
H525        H  0.04000393  0.34329141  0.34334433     0.09600
H526        H  0.03786480  0.37895532  0.31349102     0.11700
H527        H  0.95616928  0.38003989  0.32064721     0.08300
H528        H  0.95828008  0.34421309  0.35042185     0.11100
C529        C  0.99419118  0.56854559  0.23593438    -0.03500
C530        C  0.97312697  0.57029035  0.25250163    -0.06100
C531        C  0.97220955  0.58850677  0.27193238    -0.21200
C532        C  0.99207105  0.60596087  0.27520316     0.24500
C533        C  0.01273113  0.60512782  0.25811078    -0.18800
C534        C  0.01378777  0.58667718  0.23870975    -0.08700
C535        C  0.99132142  0.62320551  0.29781518    -0.19000
C536        C  0.00430082  0.64529245  0.29967520    -0.23800
C537        C  0.00360001  0.66144419  0.32308729     0.26600
C538        C  0.00642325  0.68796991  0.32094484    -0.20600
C539        C  0.00604501  0.70350609  0.34272300    -0.10200
C540        C  0.00350908  0.69293036  0.36738068    -0.10800
C541        C  0.00080021  0.66615165  0.36933089    -0.03700
C542        C  0.00092310  0.65071717  0.34755856    -0.18800
H543        H  0.95768813  0.55673775  0.25101155     0.10300
H544        H  0.95607681  0.58861633  0.28481909     0.10300
H545        H  0.02864810  0.61795769  0.26028529     0.10000
H546        H  0.03043083  0.58644579  0.22669615     0.11100
H547        H  0.97887489  0.61764891  0.31344020     0.11200
H548        H  0.01489407  0.65236525  0.28332514     0.13100
H549        H  0.00867168  0.69673983  0.30232238     0.09600
H550        H  0.00799808  0.72394110  0.34034352     0.11700
H551        H  0.99838424  0.65653141  0.38734465     0.08300
H552        H  0.99934692  0.63026834  0.35004548     0.11100
C553        C  0.99858037  0.62154824  0.44225015    -0.03500
C554        C  0.02164199  0.61524920  0.43026215    -0.06100
C555        C  0.02202916  0.59918953  0.40898996    -0.21200
C556        C  0.99946010  0.58876471  0.39941940     0.24500
C557        C  0.97626681  0.59559299  0.41099887    -0.18800
C558        C  0.97586791  0.61183735  0.43218925    -0.08700
C559        C  0.00108869  0.57081184  0.37751718    -0.19000
C560        C  0.98345783  0.55286507  0.37264172    -0.23800
C561        C  0.98617943  0.53327340  0.35230470     0.26600
C562        C  0.96429503  0.52095903  0.34335468    -0.20600
C563        C  0.96606453  0.50154706  0.32514810    -0.10200
C564        C  0.98984845  0.49384075  0.31569063    -0.10800
C565        C  0.01177645  0.50611017  0.32463726    -0.03700
C566        C  0.01000926  0.52555598  0.34279357    -0.18800
H567        H  0.03942444  0.62288356  0.43721195     0.10300
H568        H  0.04010846  0.59454696  0.40022802     0.10300
H569        H  0.95836306  0.58875977  0.40364843     0.10000
H570        H  0.95776589  0.61678886  0.44070570     0.11100
H571        H  0.01810046  0.57176650  0.36583286     0.11200
H572        H  0.96639347  0.55195550  0.38424651     0.13100
H573        H  0.94573927  0.52635667  0.35052163     0.09600
H574        H  0.94880847  0.49246611  0.31861246     0.11700
H575        H  0.03038137  0.50053088  0.31776934     0.08300
H576        H  0.02742628  0.53389271  0.34974957     0.11100
C577        C  0.00384628  0.56706680  0.75878133    -0.03500
C578        C  0.02219029  0.58647346  0.76134313    -0.06100
C579        C  0.02319064  0.60683778  0.74403801    -0.21200
C580        C  0.00590028  0.60867369  0.72377535     0.24500
C581        C  0.98718699  0.58966651  0.72140756    -0.18800
C582        C  0.98604560  0.56940001  0.73883079    -0.08700
C583        C  0.00898084  0.62994295  0.70499206    -0.19000
C584        C  0.99061321  0.63769060  0.68880742    -0.23800
C585        C  0.99380422  0.65800287  0.66898884     0.26600
C586        C  0.97528450  0.65996106  0.64990421    -0.20600
C587        C  0.97725213  0.67829910  0.63065033    -0.10200
C588        C  0.99777080  0.69550716  0.62978967    -0.10800
C589        C  0.01626895  0.69379057  0.64913321    -0.03700
C590        C  0.01427996  0.67532604  0.66851084    -0.18800
H591        H  0.03596429  0.58640638  0.77650382     0.10300
H592        H  0.03774265  0.62122501  0.74643605     0.10300
H593        H  0.97378963  0.58980453  0.70580650     0.10000
H594        H  0.97151272  0.55501817  0.73633277     0.11100
H595        H  0.02730098  0.63931017  0.70462941     0.11200
H596        H  0.97222817  0.62843828  0.68957813     0.13100
H597        H  0.95925757  0.64702186  0.64969036     0.09600
H598        H  0.96266550  0.67896259  0.61610707     0.11700
H599        H  0.03241303  0.70640580  0.64957537     0.08300
H600        H  0.02876697  0.67500219  0.68307326     0.11100
C601        C  0.98493800  0.38174574  0.67795620    -0.03500
C602        C  0.96112594  0.37128132  0.67205962    -0.06100
C603        C  0.95912084  0.35183928  0.65389014    -0.21200
C604        C  0.98086257  0.34243799  0.64152376     0.24500
C605        C  0.00459507  0.35331862  0.64711298    -0.18800
C606        C  0.00659984  0.37261483  0.66523500    -0.08700
C607        C  0.97823304  0.32215048  0.62204310    -0.19000
C608        C  0.99716949  0.30573041  0.61671684    -0.23800
C609        C  0.99651179  0.28715987  0.59546453     0.26600
C610        C  0.01971889  0.27851595  0.58555061    -0.20600
C611        C  0.02031081  0.26155121  0.56509950    -0.10200
C612        C  0.99763899  0.25260978  0.55430896    -0.10800
C613        C  0.97433970  0.26081736  0.56450266    -0.03700
C614        C  0.97374269  0.27796640  0.58492097    -0.18800
H615        H  0.94410794  0.37801901  0.68155401     0.10300
H616        H  0.94060207  0.34397398  0.64962667     0.10300
H617        H  0.02164690  0.34741056  0.63718564     0.10000
H618        H  0.02517350  0.38053966  0.66911789     0.11100
H619        H  0.96044340  0.32119326  0.61170717     0.11200
H620        H  0.01465763  0.30667162  0.62760126     0.13100
H621        H  0.03750625  0.28518577  0.59345158     0.09600
H622        H  0.03856653  0.25535520  0.55782033     0.11700
H623        H  0.95658008  0.25397504  0.55671821     0.08300
H624        H  0.95548127  0.28360451  0.59252567     0.11100
C625        C  0.99235247  0.62203771  0.55674389    -0.03500
C626        C  0.01074308  0.62248120  0.57613066    -0.06100
C627        C  0.00823201  0.60683333  0.59763612    -0.21200
C628        C  0.98779742  0.58985383  0.59967177     0.24500
C629        C  0.96921860  0.58956406  0.58044425    -0.18800
C630        C  0.97131143  0.60580027  0.55929994    -0.08700
C631        C  0.98665823  0.57201549  0.62156550    -0.19000
C632        C  0.98202162  0.54707662  0.61803442    -0.23800
C633        C  0.98413767  0.52806695  0.63883110     0.26600
C634        C  0.99514179  0.50428758  0.63345516    -0.20600
C635        C  0.99743722  0.48583173  0.65259323    -0.10200
C636        C  0.98784456  0.49053281  0.67713608    -0.10800
C637        C  0.97642819  0.51413062  0.68252359    -0.03700
C638        C  0.97491573  0.53296901  0.66358487    -0.18800
H639        H  0.02686276  0.63523828  0.57483410     0.10300
H640        H  0.02262973  0.60745786  0.61236541     0.10300
H641        H  0.95306754  0.57686416  0.58185979     0.10000
H642        H  0.95672238  0.60539042  0.54476094     0.11100
H643        H  0.99252868  0.57882278  0.64024405     0.11200
H644        H  0.97904217  0.54001371  0.59875350     0.13100
H645        H  0.00227809  0.50013586  0.61447578     0.09600
H646        H  0.00620445  0.46766725  0.64811591     0.11700
H647        H  0.96898338  0.51804184  0.70143130     0.08300
H648        H  0.96608519  0.55108189  0.66810280     0.11100
C649        C  0.83767785  0.89643278  0.41720561    -0.03500
C650        C  0.86123055  0.90402835  0.42709379    -0.06100
C651        C  0.88112328  0.88651525  0.42978236    -0.21200
C652        C  0.87787562  0.86082592  0.42303092     0.24500
C653        C  0.85406308  0.85301007  0.41370476    -0.18800
C654        C  0.83423417  0.87057848  0.41092975    -0.08700
C655        C  0.90019119  0.84331828  0.42413591    -0.19000
C656        C  0.89818256  0.81768034  0.42514922    -0.23800
C657        C  0.92008030  0.79975061  0.42303546     0.26600
C658        C  0.91516807  0.77453390  0.41553581    -0.20600
C659        C  0.93499522  0.75718424  0.41185868    -0.10200
C660        C  0.96028802  0.76450294  0.41596214    -0.10800
C661        C  0.96524171  0.78940946  0.42443182    -0.03700
C662        C  0.94539389  0.80693375  0.42786313    -0.18800
H663        H  0.86474460  0.92367500  0.43188103     0.10300
H664        H  0.89927809  0.89316084  0.43679704     0.10300
H665        H  0.85080293  0.83359982  0.40759881     0.10000
H666        H  0.81626193  0.86391259  0.40352101     0.11100
H667        H  0.91881006  0.85209149  0.42336248     0.11200
H668        H  0.87947347  0.80912524  0.42628008     0.13100
H669        H  0.89588489  0.76833122  0.41198342     0.09600
H670        H  0.93050859  0.73794642  0.40587665     0.11700
H671        H  0.98447673  0.79557287  0.42784431     0.08300
H672        H  0.95004676  0.82591729  0.43437063     0.11100
C673        C  0.83292623  0.98430826  0.41105473    -0.03500
C674        C  0.82808195  0.00754210  0.39842411    -0.06100
C675        C  0.84569277  0.02740971  0.39904625    -0.21200
C676        C  0.86852845  0.02488852  0.41253456     0.24500
C677        C  0.87299380  0.00211633  0.42611595    -0.18800
C678        C  0.85528767  0.98223831  0.42552315    -0.08700
C679        C  0.88722537  0.04613400  0.41087195    -0.19000
C680        C  0.90843684  0.04804055  0.42510136    -0.23800
C681        C  0.92727706  0.06890355  0.42169419     0.26600
C682        C  0.95248725  0.06462285  0.42912815    -0.20600
C683        C  0.97100439  0.08336113  0.42537183    -0.10200
C684        C  0.96467701  0.10685917  0.41415593    -0.10800
C685        C  0.93927917  0.11150363  0.40747649    -0.03700
C686        C  0.92073351  0.09282510  0.41131356    -0.18800
H687        H  0.81067878  0.01055966  0.38793157     0.10300
H688        H  0.84150731  0.04481506  0.38866976     0.10300
H689        H  0.89027750  0.99907802  0.43673667     0.10000
H690        H  0.85966587  0.96510248  0.43598638     0.11100
H691        H  0.88342348  0.06061948  0.39655625     0.11200
H692        H  0.91298763  0.03344296  0.43903118     0.13100
H693        H  0.95803050  0.04648205  0.43739676     0.09600
H694        H  0.99026138  0.07913463  0.43063582     0.11700
H695        H  0.93363925  0.12973253  0.39952811     0.08300
H696        H  0.90134797  0.09739310  0.40638202     0.11100
C697        C  0.63053295  0.92509476  0.24467709    -0.03500
C698        C  0.65467314  0.92795862  0.23335132    -0.06100
C699        C  0.67664334  0.92941049  0.24831952    -0.21200
C700        C  0.67523664  0.92731323  0.27501277     0.24500
C701        C  0.65132428  0.92371152  0.28642295    -0.18800
C702        C  0.62937123  0.92244154  0.27153512    -0.08700
C703        C  0.69872646  0.93020796  0.29055370    -0.19000
C704        C  0.70144568  0.91957884  0.31387386    -0.23800
C705        C  0.72391311  0.92334786  0.33066781     0.26600
C706        C  0.72815665  0.90579535  0.35042681    -0.20600
C707        C  0.74769095  0.90955309  0.36799895    -0.10200
C708        C  0.76340174  0.93126354  0.36672670    -0.10800
C709        C  0.75941455  0.94867133  0.34651697    -0.03700
C710        C  0.73992804  0.94474336  0.32873270    -0.18800
H711        H  0.65645563  0.92968807  0.21279982     0.10300
H712        H  0.69481446  0.93223809  0.23900127     0.10300
H713        H  0.64930543  0.92253452  0.30697536     0.10000
H714        H  0.61180361  0.91936185  0.28161931     0.11100
H715        H  0.71433719  0.94085490  0.28218332     0.11200
H716        H  0.68668662  0.90697035  0.32100007     0.13100
H717        H  0.71602599  0.88924181  0.35254580     0.09600
H718        H  0.75005740  0.89578998  0.38327681     0.11700
H719        H  0.77056967  0.96576909  0.34447658     0.08300
H720        H  0.73690100  0.95905931  0.31414667     0.11100
C721        C  0.05307980  0.11325462  0.41720030    -0.03500
C722        C  0.07760264  0.11957699  0.40857711    -0.06100
C723        C  0.09805422  0.10309403  0.41276410    -0.21200
C724        C  0.09462152  0.07985426  0.42568861     0.24500
C725        C  0.07036878  0.07410431  0.43546122    -0.18800
C726        C  0.04991500  0.09060797  0.43126577    -0.08700
C727        C  0.11671402  0.06216560  0.42774450    -0.19000
C728        C  0.11494816  0.03737499  0.43451609    -0.23800
C729        C  0.13653137  0.01906515  0.43318186     0.26600
C730        C  0.13493625  0.99616501  0.44697515    -0.20600
C731        C  0.15356490  0.97730239  0.44436613    -0.10200
C732        C  0.17425505  0.98067716  0.42760307    -0.10800
C733        C  0.17626126  0.00416245  0.41455729    -0.03700
C734        C  0.15758103  0.02294258  0.41707703    -0.18800
H735        H  0.08114834  0.13727763  0.39852070     0.10300
H736        H  0.11655849  0.10832056  0.40538993     0.10300
H737        H  0.06678957  0.05692182  0.44630727     0.10000
H738        H  0.03166782  0.08516831  0.43865481     0.11100
H739        H  0.13506053  0.06981164  0.42228131     0.11200
H740        H  0.09689632  0.02957181  0.44060539     0.13100
H741        H  0.11892001  0.99263178  0.45951911     0.09600
H742        H  0.15106671  0.95993779  0.45511640     0.11700
H743        H  0.19211046  0.00825079  0.40208072     0.08300
H744        H  0.15942894  0.04002761  0.40563643     0.11100
C745        C  0.17218838  0.89327390  0.42662213    -0.03500
C746        C  0.14769883  0.90039287  0.43434574    -0.06100
C747        C  0.12819007  0.88236805  0.43530399    -0.21200
C748        C  0.13278089  0.85678570  0.42880068     0.24500
C749        C  0.15760913  0.84950441  0.42183455    -0.18800
C750        C  0.17706632  0.86758363  0.42081310    -0.08700
C751        C  0.11081989  0.83897405  0.42782545    -0.19000
C752        C  0.11293087  0.81336900  0.42673446    -0.23800
C753        C  0.09080777  0.79606694  0.42371156     0.26600
C754        C  0.09476992  0.77193594  0.41286651    -0.20600
C755        C  0.07445295  0.75527402  0.40904172    -0.10200
C756        C  0.04963858  0.76228944  0.41617927    -0.10800
C757        C  0.04581717  0.78612101  0.42778222    -0.03700
C758        C  0.06611935  0.80285804  0.43150608    -0.18800
H759        H  0.14329090  0.92008080  0.43847249     0.10300
H760        H  0.10926507  0.88857700  0.44057751     0.10300
H761        H  0.16208749  0.83021261  0.41616769     0.10000
H762        H  0.19586980  0.86156717  0.41493151     0.11100
H763        H  0.09211368  0.84762772  0.42728994     0.11200
H764        H  0.13151971  0.80450369  0.42700756     0.13100
H765        H  0.11363868  0.76605486  0.40703263     0.09600
H766        H  0.07830037  0.73677664  0.40072272     0.11700
H767        H  0.02712582  0.79209778  0.43375221     0.08300
H768        H  0.06234877  0.82089011  0.44077747     0.11100
C769        C  0.24469749  0.93682950  0.37774186    -0.03500
C770        C  0.26192027  0.95737123  0.37663234    -0.06100
C771        C  0.28028808  0.95890489  0.35735565    -0.21200
C772        C  0.28209162  0.93993455  0.33858222     0.24500
C773        C  0.26446992  0.91976159  0.33909906    -0.18800
C774        C  0.24614100  0.91815350  0.35843619    -0.08700
C775        C  0.30223637  0.94215459  0.31861950    -0.19000
C776        C  0.31080746  0.92216420  0.30486039    -0.23800
C777        C  0.33092466  0.92379197  0.28486365     0.26600
C778        C  0.33282852  0.90386219  0.26711998    -0.20600
C779        C  0.35188009  0.90371958  0.24848400    -0.10200
C780        C  0.36988605  0.92355807  0.24714580    -0.10800
C781        C  0.36786016  0.94359614  0.26500654    -0.03700
C782        C  0.34871080  0.94375720  0.28361594    -0.18800
H783        H  0.26136673  0.97215493  0.39106534     0.10300
H784        H  0.29339383  0.97482131  0.35734273     0.10300
H785        H  0.26443585  0.90522691  0.32447733     0.10000
H786        H  0.23343746  0.90208835  0.35786542     0.11100
H787        H  0.31043599  0.96089276  0.31562288     0.11200
H788        H  0.30272687  0.90342576  0.30812917     0.13100
H789        H  0.31948956  0.88814608  0.26772605     0.09600
H790        H  0.35226648  0.88768615  0.23567105     0.11700
H791        H  0.38148764  0.95906217  0.26476513     0.08300
H792        H  0.34845788  0.95918186  0.29729698     0.11100
C793        C  0.32082947  0.92976536  0.45123667    -0.03500
C794        C  0.33130903  0.90658703  0.44291274    -0.06100
C795        C  0.34989884  0.90633124  0.42387481    -0.21200
C796        C  0.35812671  0.92914387  0.41250628     0.24500
C797        C  0.34732289  0.95234979  0.42051649    -0.18800
C798        C  0.32882759  0.95261502  0.43969601    -0.08700
C799        C  0.37884817  0.92783218  0.39337347    -0.19000
C800        C  0.38324732  0.94581503  0.37548106    -0.23800
C801        C  0.40408564  0.94360480  0.35645304     0.26600
C802        C  0.41386398  0.96578783  0.34501402    -0.20600
C803        C  0.43380620  0.96426674  0.32733309    -0.10200
C804        C  0.44420335  0.94046460  0.32074636    -0.10800
C805        C  0.43399606  0.91828966  0.33174804    -0.03700
C806        C  0.41407261  0.91978608  0.34920532    -0.18800
H807        H  0.32546372  0.88866826  0.45140460     0.10300
H808        H  0.35798380  0.88822026  0.41807052     0.10300
H809        H  0.35355838  0.97038263  0.41266680     0.10000
H810        H  0.32099931  0.97076162  0.44569879     0.11100
H811        H  0.39083234  0.91102023  0.39419333     0.11200
H812        H  0.37155710  0.96284947  0.37478010     0.13100
H813        H  0.40623991  0.98433713  0.34998222     0.09600
H814        H  0.44109714  0.98166278  0.31888895     0.11700
H815        H  0.44122734  0.89962144  0.32665836     0.08300
H816        H  0.40636056  0.90212419  0.35653834     0.11100
C817        C  0.17764939  0.97819479  0.59044911    -0.03500
C818        C  0.18479086  0.00220760  0.59996952    -0.06100
C819        C  0.16855387  0.02319598  0.59778621    -0.21200
C820        C  0.14481037  0.02087305  0.58590614     0.24500
C821        C  0.13787513  0.99697222  0.57579666    -0.18800
C822        C  0.15422079  0.97596755  0.57791422    -0.08700
C823        C  0.12744709  0.04338056  0.58611489    -0.19000
C824        C  0.10676662  0.04585231  0.57112893    -0.23800
C825        C  0.08827905  0.06741523  0.57296320     0.26600
C826        C  0.06454056  0.06474167  0.56116445    -0.20600
C827        C  0.04598116  0.08372298  0.56341040    -0.10200
C828        C  0.05045256  0.10585616  0.57785229    -0.10800
C829        C  0.07475832  0.10914048  0.58852627    -0.03700
C830        C  0.09342666  0.09026211  0.58609254    -0.18800
H831        H  0.20295734  0.00483856  0.60921282     0.10300
H832        H  0.17448653  0.04131554  0.60570313     0.10300
H833        H  0.11957458  0.99401265  0.56701933     0.10000
H834        H  0.14804393  0.95781392  0.57048932     0.11100
H835        H  0.13192766  0.05821138  0.59975864     0.11200
H836        H  0.10246879  0.03104087  0.55737753     0.13100
H837        H  0.06010786  0.04762140  0.55050088     0.09600
H838        H  0.02805147  0.08054630  0.55415693     0.11700
H839        H  0.07956649  0.12637820  0.59875117     0.08300
H840        H  0.11176093  0.09389203  0.59451610     0.11100
C841        C  0.17331996  0.88848401  0.58343414    -0.03500
C842        C  0.17969978  0.86270968  0.58717500    -0.06100
C843        C  0.16214822  0.84345879  0.58213082    -0.21200
C844        C  0.13767136  0.84941678  0.57347376     0.24500
C845        C  0.13162123  0.87514249  0.56847326    -0.18800
C846        C  0.14937821  0.89446337  0.57331693    -0.08700
C847        C  0.11914717  0.82816070  0.57078745    -0.19000
C848        C  0.09374602  0.83112133  0.57207028    -0.23800
C849        C  0.07572563  0.80926934  0.57371614     0.26600
C850        C  0.05029780  0.81300724  0.56668209    -0.20600
C851        C  0.03240957  0.79349858  0.56980295    -0.10200
C852        C  0.03943020  0.76989724  0.58040535    -0.10800
C853        C  0.06494598  0.76604632  0.58721341    -0.03700
C854        C  0.08286534  0.78547041  0.58399072    -0.18800
H855        H  0.19827233  0.85738947  0.59424526     0.10300
H856        H  0.16749528  0.82382418  0.58577956     0.10300
H857        H  0.11325476  0.88048822  0.56098637     0.10000
H858        H  0.14403202  0.91406983  0.56994867     0.11100
H859        H  0.12699070  0.80905297  0.56955703     0.11200
H860        H  0.08565419  0.85013851  0.57292984     0.13100
H861        H  0.04417505  0.83121641  0.55903779     0.09600
H862        H  0.01294896  0.79728443  0.56470561     0.11700
H863        H  0.07108754  0.74802301  0.59523226     0.08300
H864        H  0.10203708  0.78194940  0.59043251     0.11100
C865        C  0.24386121  0.92711327  0.63854506    -0.03500
C866        C  0.24364848  0.90704547  0.65651613    -0.06100
C867        C  0.26183242  0.90579516  0.67587908    -0.21200
C868        C  0.28085574  0.92436078  0.67797764     0.24500
C869        C  0.28075230  0.94491146  0.66063293    -0.18800
C870        C  0.26246624  0.94624665  0.64128671    -0.08700
C871        C  0.29991008  0.92151400  0.69882793    -0.19000
C872        C  0.32250221  0.93359401  0.69944133    -0.23800
C873        C  0.34169344  0.92986551  0.72005192     0.26600
C874        C  0.36081356  0.94820353  0.72292722    -0.20600
C875        C  0.37960884  0.94525743  0.74147467    -0.10200
C876        C  0.38006812  0.92375117  0.75768932    -0.10800
C877        C  0.36092257  0.90526900  0.75472128    -0.03700
C878        C  0.34205155  0.90824863  0.73611426    -0.18800
H879        H  0.22982328  0.89195805  0.65598224     0.10300
H880        H  0.26121275  0.88991833  0.68915153     0.10300
H881        H  0.29450428  0.96013612  0.66192195     0.10000
H882        H  0.26307976  0.96214219  0.62804283     0.11100
H883        H  0.29504310  0.90837325  0.71407772     0.11200
H884        H  0.32739576  0.94690498  0.68433855     0.13100
H885        H  0.36126533  0.96491448  0.71072097     0.09600
H886        H  0.39415719  0.95976866  0.74300371     0.11700
H887        H  0.36046712  0.88817822  0.76619265     0.08300
H888        H  0.32826729  0.89314594  0.73405740     0.11100
C889        C  0.68996248  0.93598900  0.43687703    -0.03500
C890        C  0.68350996  0.91263513  0.42549593    -0.06100
C891        C  0.66692979  0.91193408  0.40473090    -0.21200
C892        C  0.65626068  0.93448867  0.39505567     0.24500
C893        C  0.66349522  0.95797608  0.40580385    -0.18800
C894        C  0.68011822  0.95867942  0.42655838    -0.08700
C895        C  0.63723710  0.93254779  0.37427497    -0.19000
C896        C  0.61897314  0.95013124  0.37037414    -0.23800
C897        C  0.59794701  0.94673541  0.35188348     0.26600
C898        C  0.58909214  0.92244271  0.34482248    -0.20600
C899        C  0.56830439  0.92000061  0.32852051    -0.10200
C900        C  0.55586674  0.94172103  0.31895377    -0.10800
C901        C  0.56467459  0.96597725  0.32601859    -0.03700
C902        C  0.58539492  0.96842398  0.34248036    -0.18800
H903        H  0.69113387  0.89485159  0.43274049     0.10300
H904        H  0.66193132  0.89362850  0.39659186     0.10300
H905        H  0.65651658  0.97586161  0.39825521     0.10000
H906        H  0.68521108  0.97700960  0.43455945     0.11100
H907        H  0.63742455  0.91524243  0.36291929     0.11200
H908        H  0.61876894  0.96752590  0.38156298     0.13100
H909        H  0.59765667  0.90524296  0.35232211     0.09600
H910        H  0.56197031  0.90103740  0.32340850     0.11700
H911        H  0.55550356  0.98306162  0.31890894     0.08300
H912        H  0.59167921  0.98733410  0.34787159     0.11100
C913        C  0.83267384  0.89858187  0.57786349    -0.03500
C914        C  0.85613169  0.90430387  0.56650783    -0.06100
C915        C  0.87464257  0.88538432  0.56357911    -0.21200
C916        C  0.87004663  0.86024104  0.57166133     0.24500
C917        C  0.84618316  0.85433110  0.58230323    -0.18800
C918        C  0.82773238  0.87324488  0.58519773    -0.08700
C919        C  0.89116817  0.84140973  0.57012097    -0.19000
C920        C  0.88832228  0.81606061  0.57342887    -0.23800
C921        C  0.91005117  0.79804705  0.57466838     0.26600
C922        C  0.90714400  0.77537115  0.58856824    -0.20600
C923        C  0.92747636  0.75852781  0.59148000    -0.10200
C924        C  0.95135749  0.76396313  0.58056638    -0.10800
C925        C  0.95378761  0.78604981  0.56548342    -0.03700
C926        C  0.93341284  0.80291048  0.56255731    -0.18800
H927        H  0.86059949  0.92350383  0.56063324     0.10300
H928        H  0.89283273  0.89053880  0.55536340     0.10300
H929        H  0.84168854  0.83544382  0.58919807     0.10000
H930        H  0.80960300  0.86797920  0.59343451     0.11100
H931        H  0.91004686  0.84910308  0.56705026     0.11200
H932        H  0.86966257  0.80807094  0.57682361     0.13100
H933        H  0.88918611  0.77088881  0.59766278     0.09600
H934        H  0.92428463  0.74123805  0.60231119     0.11700
H935        H  0.97145365  0.79078564  0.55622457     0.08300
H936        H  0.93609081  0.81964867  0.55074901     0.11100
C937        C  0.82740774  0.98787803  0.57780251    -0.03500
C938        C  0.82077731  0.01246368  0.58631128    -0.06100
C939        C  0.83773889  0.03282021  0.58373265    -0.21200
C940        C  0.86177597  0.02914587  0.57271323     0.24500
C941        C  0.86786377  0.00490129  0.56288621    -0.18800
C942        C  0.85087240  0.98456763  0.56544007    -0.08700
C943        C  0.87992216  0.05093737  0.57216664    -0.19000
C944        C  0.90532506  0.04788592  0.57076327    -0.23800
C945        C  0.92423930  0.06896287  0.57242026     0.26600
C946        C  0.94965993  0.06335524  0.56654939    -0.20600
C947        C  0.96858850  0.08176975  0.56934267    -0.10200
C948        C  0.96268539  0.10626875  0.57823846    -0.10800
C949        C  0.93721790  0.11213332  0.58383969    -0.03700
C950        C  0.91816812  0.09372856  0.58097220    -0.18800
H951        H  0.80250965  0.01603554  0.59512166     0.10300
H952        H  0.83228434  0.05138987  0.59097697     0.10300
H953        H  0.88568574  0.00141097  0.55321240     0.10000
H954        H  0.85655280  0.96617051  0.55825569     0.11100
H955        H  0.87192547  0.06986415  0.57432158     0.11200
H956        H  0.91305421  0.02878196  0.56906118     0.13100
H957        H  0.95501500  0.04444854  0.56014347     0.09600
H958        H  0.98794574  0.07644677  0.56539533     0.11700
H959        H  0.93203159  0.13095020  0.59060058     0.08300
H960        H  0.89900454  0.09895747  0.58616641     0.11100
C961        C  0.75911134  0.94035133  0.62681737    -0.03500
C962        C  0.73976622  0.95894151  0.62676696    -0.06100
C963        C  0.72070177  0.95894023  0.64540663    -0.21200
C964        C  0.72064695  0.94073363  0.66507653     0.24500
C965        C  0.74025193  0.92247994  0.66564939    -0.18800
C966        C  0.75923782  0.92234311  0.64688656    -0.08700
C967        C  0.69922043  0.94079030  0.68377491    -0.19000
C968        C  0.70010111  0.92929355  0.70686430    -0.23800
C969        C  0.67850602  0.92847439  0.72537700     0.26600
C970        C  0.67967716  0.91101047  0.74570374    -0.20600
C971        C  0.65987620  0.90907634  0.76347735    -0.10200
C972        C  0.63820847  0.92475402  0.76150589    -0.10800
C973        C  0.63750873  0.94284997  0.74155468    -0.03700
C974        C  0.65723101  0.94465038  0.72368819    -0.18800
H975        H  0.73906414  0.97319810  0.61177473     0.10300
H976        H  0.70582121  0.97318681  0.64435243     0.10300
H977        H  0.74074351  0.90769521  0.68005321     0.10000
H978        H  0.77358095  0.90778240  0.64841739     0.11100
H979        H  0.68214892  0.95075661  0.67796224     0.11200
H980        H  0.71734319  0.91957762  0.71262538     0.13100
H981        H  0.69598114  0.89855810  0.74776039     0.09600
H982        H  0.66206473  0.89531092  0.77861010     0.11700
H983        H  0.62139877  0.95557737  0.73966896     0.08300
H984        H  0.65568370  0.95898502  0.70892429     0.11100
C985        C  0.56507359  0.93560923  0.68369147    -0.03500
C986        C  0.57311772  0.96003409  0.67611731    -0.06100
C987        C  0.59279622  0.96288404  0.65835864    -0.21200
C988        C  0.60472322  0.94142801  0.64770854     0.24500
C989        C  0.59707352  0.91697390  0.65582579    -0.18800
C990        C  0.57734381  0.91413074  0.67346668    -0.08700
C991        C  0.62504100  0.94526534  0.62830956    -0.19000
C992        C  0.63075933  0.92760965  0.61053223    -0.23800
C993        C  0.65024722  0.93087870  0.59023634     0.26600
C994        C  0.65927654  0.90891486  0.57793209    -0.20600
C995        C  0.67675921  0.91071843  0.55796878    -0.10200
C996        C  0.68553365  0.93461575  0.54963326    -0.10800
C997        C  0.67657008  0.95671794  0.56188970    -0.03700
C998        C  0.65905471  0.95490792  0.58200604    -0.18800
H999        H  0.56412317  0.97695664  0.68381375     0.10300
H1000       H  0.59848210  0.98191741  0.65264268     0.10300
H1001       H  0.60643245  0.89994083  0.64895216     0.10000
H1002       H  0.57186250  0.89507240  0.67928402     0.11100
H1003       H  0.63482231  0.96346114  0.62830628     0.11200
H1004       H  0.62058010  0.90963385  0.61051560     0.13100
H1005       H  0.65276011  0.89019468  0.58380220     0.09600
H1006       H  0.68338762  0.89330982  0.54903887     0.11700
H1007       H  0.68306668  0.97540079  0.55592051     0.08300
H1008       H  0.65214806  0.97235635  0.59054491     0.11100
C1009       C  0.32252784  0.92694022  0.56172256    -0.03500
C1010       C  0.33074949  0.94928515  0.57394413    -0.06100
C1011       C  0.34897196  0.94816485  0.59325270    -0.21200
C1012       C  0.35955823  0.92462075  0.60058617     0.24500
C1013       C  0.35091218  0.90224817  0.58874378    -0.18800
C1014       C  0.33263982  0.90336847  0.56945459    -0.08700
C1015       C  0.37940118  0.92247169  0.62057637    -0.19000
C1016       C  0.39511020  0.94169137  0.62703835    -0.23800
C1017       C  0.41574947  0.93883560  0.64610642     0.26600
C1018       C  0.42462687  0.96054672  0.65896567    -0.20600
C1019       C  0.44414306  0.95854002  0.67695855    -0.10200
C1020       C  0.45532861  0.93476288  0.68221622    -0.10800
C1021       C  0.44677497  0.91314336  0.66896715    -0.03700
C1022       C  0.42731263  0.91514170  0.65104075    -0.18800
H1023       H  0.32295326  0.96768713  0.56871273     0.10300
H1024       H  0.35436012  0.96574802  0.60252953     0.10300
H1025       H  0.35856982  0.88384604  0.59421425     0.10000
H1026       H  0.32652741  0.88579804  0.56052790     0.11100
H1027       H  0.38151784  0.90399129  0.62969392     0.11200
H1028       H  0.39299221  0.96028472  0.61817873     0.13100
H1029       H  0.41624539  0.97906824  0.65527004     0.09600
H1030       H  0.45037695  0.97555492  0.68682148     0.11700
H1031       H  0.45518272  0.89459083  0.67239287     0.08300
H1032       H  0.42177431  0.89812951  0.64082249     0.11100
C1033       C  0.41818195  0.74855270  0.95676879    -0.03500
C1034       C  0.41308728  0.74100762  0.93154620    -0.06100
C1035       C  0.41703305  0.75782499  0.91119544    -0.21200
C1036       C  0.42607039  0.78263229  0.91546305     0.24500
C1037       C  0.43176209  0.79003209  0.94068049    -0.18800
C1038       C  0.42776841  0.77317514  0.96107974    -0.08700
C1039       C  0.42903845  0.79991252  0.89301776    -0.19000
C1040       C  0.43033512  0.82555856  0.89461259    -0.23800
C1041       C  0.43045415  0.84294180  0.87203432     0.26600
C1042       C  0.43755568  0.86850696  0.87560729    -0.20600
C1043       C  0.43590290  0.88611140  0.85557880    -0.10200
C1044       C  0.42686923  0.87858905  0.83153136    -0.10800
C1045       C  0.42019564  0.85296465  0.82770751    -0.03700
C1046       C  0.42194173  0.83530683  0.84769709    -0.18800
H1047       H  0.40613082  0.72203078  0.92745029     0.10300
H1048       H  0.41267765  0.75149308  0.89200581     0.10300
H1049       H  0.43937934  0.80868229  0.94489361     0.10000
H1050       H  0.43166680  0.77970340  0.98028083     0.11100
H1051       H  0.42905514  0.79091689  0.87438939     0.11200
H1052       H  0.43052504  0.83459677  0.91322031     0.13100
H1053       H  0.44396190  0.87501695  0.89413704     0.09600
H1054       H  0.44082120  0.90582361  0.85922649     0.11700
H1055       H  0.41332655  0.84662229  0.80929990     0.08300
H1056       H  0.41567979  0.81604056  0.84406094     0.11100
C1057       C  0.40885888  0.75850107  0.04235049    -0.03500
C1058       C  0.38626241  0.77042133  0.05023289    -0.06100
C1059       C  0.38682876  0.79135306  0.06665203    -0.21200
C1060       C  0.40992245  0.80089612  0.07588073     0.24500
C1061       C  0.43267831  0.78924193  0.06784569    -0.18800
C1062       C  0.43211647  0.76828130  0.05116196    -0.08700
C1063       C  0.40895292  0.82314156  0.09351620    -0.19000
C1064       C  0.42700134  0.82903906  0.11080422    -0.23800
C1065       C  0.42349535  0.84934311  0.13054209     0.26600
C1066       C  0.44481143  0.85988846  0.14275460    -0.20600
C1067       C  0.44190616  0.87802643  0.16230044    -0.10200
C1068       C  0.41757150  0.88570394  0.17025490    -0.10800
C1069       C  0.39633172  0.87534301  0.15783716    -0.03700
C1070       C  0.39919310  0.85730689  0.13848299    -0.18800
H1071       H  0.36803114  0.76387633  0.04338157     0.10300
H1072       H  0.36901965  0.80005028  0.07233298     0.10300
H1073       H  0.45088611  0.79638123  0.07409404     0.10000
H1074       H  0.44987693  0.75954094  0.04548562     0.11100
H1075       H  0.39167864  0.83438333  0.09289610     0.11200
H1076       H  0.44458811  0.81825368  0.11119446     0.13100
H1077       H  0.46375576  0.85393011  0.13728390     0.09600
H1078       H  0.45864529  0.88549142  0.17162089     0.11700
H1079       H  0.37729011  0.88110208  0.16312626     0.08300
H1080       H  0.38213805  0.84922235  0.13043871     0.11100
C1081       C  0.04017381  0.51462291  0.16799410    -0.03500
C1082       C  0.06524700  0.51666310  0.17672586    -0.06100
C1083       C  0.08564516  0.51137466  0.16043329    -0.21200
C1084       C  0.08156199  0.50421198  0.13489998     0.24500
C1085       C  0.05630267  0.50140480  0.12640779    -0.18800
C1086       C  0.03587971  0.50643027  0.14288772    -0.08700
C1087       C  0.10425146  0.50135597  0.11790276    -0.19000
C1088       C  0.10341123  0.49665707  0.09255517    -0.23800
C1089       C  0.12615148  0.49740680  0.07547940     0.26600
C1090       C  0.12478808  0.48580583  0.05136446    -0.20600
C1091       C  0.14474044  0.48811264  0.03376890    -0.10200
C1092       C  0.16645405  0.50251271  0.03961013    -0.10800
C1093       C  0.16819798  0.51331498  0.06418242    -0.03700
C1094       C  0.14830618  0.51097792  0.08179026    -0.18800
H1095       H  0.06907390  0.52250467  0.19618047     0.10300
H1096       H  0.10476559  0.51352176  0.16769201     0.10300
H1097       H  0.05195565  0.49579455  0.10707957     0.10000
H1098       H  0.01674065  0.50475996  0.13570385     0.11100
H1099       H  0.12259790  0.50412277  0.12682567     0.11200
H1100       H  0.08544545  0.49254369  0.08346341     0.13100
H1101       H  0.10798406  0.47524938  0.04591488     0.09600
H1102       H  0.14261308  0.47919310  0.01538859     0.11700
H1103       H  0.18483797  0.52392992  0.06988461     0.08300
H1104       H  0.15014548  0.52068736  0.09988863     0.11100
C1105       C  0.04098251  0.51054765  0.82994931    -0.03500
C1106       C  0.03421887  0.49660788  0.85186563    -0.06100
C1107       C  0.05219370  0.49133119  0.87082237    -0.21200
C1108       C  0.07743825  0.49952536  0.86818005     0.24500
C1109       C  0.08443946  0.51273243  0.84582546    -0.18800
C1110       C  0.06650232  0.51796404  0.82691704    -0.08700
C1111       C  0.09526414  0.49589584  0.88993645    -0.19000
C1112       C  0.12075752  0.49672164  0.88751655    -0.23800
C1113       C  0.13859332  0.49705903  0.90953880     0.26600
C1114       C  0.16289890  0.50734797  0.90576015    -0.20600
C1115       C  0.17970403  0.51000996  0.92618512    -0.10200
C1116       C  0.17268356  0.50228276  0.95095939    -0.10800
C1117       C  0.14890467  0.49070985  0.95449042    -0.03700
C1118       C  0.13198937  0.48812914  0.93405821    -0.18800
H1119       H  0.01490432  0.49047629  0.85490859     0.10300
H1120       H  0.04623146  0.48120666  0.88787003     0.10300
H1121       H  0.10347144  0.51994969  0.84311397     0.10000
H1122       H  0.07272438  0.52809277  0.80999845     0.11100
H1123       H  0.08678460  0.49349945  0.90868323     0.11200
H1124       H  0.12910971  0.49884749  0.86867283     0.13100
H1125       H  0.16868642  0.51403080  0.88703142     0.09600
H1126       H  0.19816230  0.51835165  0.92256498     0.11700
H1127       H  0.14293857  0.48436189  0.97314064     0.08300
H1128       H  0.11381874  0.47925145  0.93768649     0.11100
C1129       C  0.36718000  0.68063748  0.00294587    -0.03500
C1130       C  0.34329477  0.69012958  0.99546659    -0.06100
C1131       C  0.32231074  0.67392214  0.99319462    -0.21200
C1132       C  0.32436419  0.64789784  0.99910500     0.24500
C1133       C  0.34796133  0.63836360  0.00719761    -0.18800
C1134       C  0.36895350  0.65447720  0.00933422    -0.08700
C1135       C  0.30183905  0.63105813  0.99597014    -0.19000
C1136       C  0.29849846  0.60958425  0.00978397    -0.23800
C1137       C  0.27676212  0.59168271  0.00682854     0.26600
C1138       C  0.27250218  0.57365382  0.02616828    -0.20600
C1139       C  0.25380644  0.55501395  0.02353110    -0.10200
C1140       C  0.23887339  0.55354155  0.00130795    -0.10800
C1141       C  0.24264324  0.57217456  0.98216913    -0.03700
C1142       C  0.26138357  0.59095867  0.98488182    -0.18800
H1143       H  0.34099704  0.71014527  0.99084566     0.10300
H1144       H  0.30435436  0.68178184  0.98689756     0.10300
H1145       H  0.35051947  0.61831588  0.01146374     0.10000
H1146       H  0.38622565  0.64592514  0.01623054     0.11100
H1147       H  0.28729712  0.63719223  0.98267195     0.11200
H1148       H  0.31212986  0.60500332  0.02462666     0.13100
H1149       H  0.28404973  0.57365551  0.04326901     0.09600
H1150       H  0.25151447  0.54105489  0.03864866     0.11700
H1151       H  0.23197003  0.57214544  0.96464143     0.08300
H1152       H  0.26429908  0.60417947  0.96927696     0.11100
C1153       C  0.41561548  0.97188448  0.17709758    -0.03500
C1154       C  0.43980927  0.98032957  0.16948312    -0.06100
C1155       C  0.44237090  0.00032914  0.15184291    -0.21200
C1156       C  0.42083642  0.01210353  0.14129439     0.24500
C1157       C  0.39666882  0.00413470  0.14957269    -0.18800
C1158       C  0.39411970  0.98414725  0.16699294    -0.08700
C1159       C  0.42404559  0.03266714  0.12187512    -0.19000
C1160       C  0.40610286  0.03786903  0.10428802    -0.23800
C1161       C  0.40776658  0.05834596  0.08469058     0.26600
C1162       C  0.38512425  0.06639315  0.07315089    -0.20600
C1163       C  0.38535790  0.08476676  0.05387306    -0.10200
C1164       C  0.40833382  0.09547752  0.04543810    -0.10800
C1165       C  0.43110546  0.08746576  0.05686078    -0.03700
C1166       C  0.43086526  0.06912153  0.07641243    -0.18800
H1167       H  0.45677372  0.97168415  0.17728989     0.10300
H1168       H  0.46121618  0.00637168  0.14613831     0.10300
H1169       H  0.37955890  0.01332813  0.14283652     0.10000
H1170       H  0.37516328  0.97808692  0.17219267     0.11100
H1171       H  0.44171882  0.04326567  0.12191104     0.11200
H1172       H  0.38882197  0.02663550  0.10413610     0.13100
H1173       H  0.36709729  0.05826287  0.07895432     0.09600
H1174       H  0.36752774  0.09001599  0.04505383     0.11700
H1175       H  0.44908886  0.09536517  0.05067449     0.08300
H1176       H  0.44878342  0.06304569  0.08441628     0.11100
C1177       C  0.41541598  0.08374194  0.96258768    -0.03500
C1178       C  0.39447109  0.06803589  0.95771381    -0.06100
C1179       C  0.39687751  0.04696052  0.94171927    -0.21200
C1180       C  0.42013139  0.04137759  0.92984732     0.24500
C1181       C  0.44141715  0.05666050  0.93536740    -0.18800
C1182       C  0.43906453  0.07762060  0.95183714    -0.08700
C1183       C  0.42070761  0.01988437  0.91144698    -0.19000
C1184       C  0.43736565  0.01773848  0.89199174    -0.23800
C1185       C  0.43394319  0.99856942  0.87140232     0.26600
C1186       C  0.45515928  0.98889906  0.85829851    -0.20600
C1187       C  0.45208354  0.97116138  0.83852467    -0.10200
C1188       C  0.42768288  0.96322744  0.83122225    -0.10800
C1189       C  0.40649992  0.97326022  0.84408111    -0.03700
C1190       C  0.40955544  0.99078386  0.86380823    -0.18800
H1191       H  0.37614187  0.07221235  0.96618032     0.10300
H1192       H  0.38025757  0.03539340  0.93800107     0.10300
H1193       H  0.45979566  0.05256439  0.92707298     0.10000
H1194       H  0.45546492  0.08948106  0.95557034     0.11100
H1195       H  0.40531134  0.00619016  0.91290100     0.11200
H1196       H  0.45331153  0.03072783  0.89041552     0.13100
H1197       H  0.47411480  0.99493518  0.86350373     0.09600
H1198       H  0.46873836  0.96394535  0.82874318     0.11700
H1199       H  0.38745682  0.96733207  0.83913212     0.08300
H1200       H  0.39267623  0.99851889  0.87273012     0.11100
C1201       C  0.04426945  0.35999492  0.16620842    -0.03500
C1202       C  0.03787048  0.37029806  0.14230606    -0.06100
C1203       C  0.05604118  0.37233180  0.12291044    -0.21200
C1204       C  0.08097912  0.36390144  0.12691587     0.24500
C1205       C  0.08781507  0.35495928  0.15133364    -0.18800
C1206       C  0.06961405  0.35294521  0.17071275    -0.08700
C1207       C  0.09905986  0.36410729  0.10506972    -0.19000
C1208       C  0.11856543  0.34757029  0.10325564    -0.23800
C1209       C  0.13610246  0.34593597  0.08104328     0.26600
C1210       C  0.15949655  0.33367137  0.08454040    -0.20600
C1211       C  0.17627662  0.33047414  0.06414427    -0.10200
C1212       C  0.17000100  0.33929038  0.03957846    -0.10800
C1213       C  0.14671817  0.35187387  0.03606218    -0.03700
C1214       C  0.12980436  0.35501112  0.05651520    -0.18800
H1215       H  0.01862519  0.37570724  0.13807672     0.10300
H1216       H  0.05033515  0.37956728  0.10438873     0.10300
H1217       H  0.10712559  0.34938955  0.15557937     0.10000
H1218       H  0.07533977  0.34561488  0.18917596     0.11100
H1219       H  0.09528306  0.37736343  0.08960539     0.11200
H1220       H  0.12192789  0.33416979  0.11870605     0.13100
H1221       H  0.16485750  0.32652066  0.10320061     0.09600
H1222       H  0.19433265  0.32129145  0.06775477     0.11700
H1223       H  0.14126993  0.35886059  0.01746626     0.08300
H1224       H  0.11169048  0.36397003  0.05279740     0.11100
C1225       C  0.04245512  0.35599078  0.82700006    -0.03500
C1226       C  0.03899976  0.37318861  0.84739606    -0.06100
C1227       C  0.05692930  0.37512496  0.86692585    -0.21200
C1228       C  0.07914143  0.36043615  0.86641714     0.24500
C1229       C  0.08325319  0.34394411  0.84564838    -0.18800
C1230       C  0.06529505  0.34194574  0.82613035    -0.08700
C1231       C  0.09671518  0.36165526  0.88856937    -0.19000
C1232       C  0.12149912  0.35540006  0.88703075    -0.23800
C1233       C  0.13914637  0.35398181  0.90921744     0.26600
C1234       C  0.16461231  0.34753310  0.90443888    -0.20600
C1235       C  0.18153685  0.34354790  0.92455950    -0.10200
C1236       C  0.17342388  0.34608320  0.94999851    -0.10800
C1237       C  0.14833126  0.35357178  0.95486871    -0.03700
C1238       C  0.13127205  0.35733468  0.93477329    -0.18800
H1239       H  0.02228339  0.38490349  0.84900256     0.10300
H1240       H  0.05328174  0.38802077  0.88267966     0.10300
H1241       H  0.09988490  0.33186767  0.84470651     0.10000
H1242       H  0.06944595  0.32906254  0.81058290     0.11100
H1243       H  0.08866908  0.36812987  0.90647858     0.11200
H1244       H  0.12943305  0.35066675  0.86847807     0.13100
H1245       H  0.17133739  0.34494509  0.88503333     0.09600
H1246       H  0.20093699  0.33818827  0.92022383     0.11700
H1247       H  0.14153793  0.35546841  0.97423946     0.08300
H1248       H  0.11193579  0.36213500  0.93966154     0.11100
C1249       C  0.36948837  0.16504782  0.99068699    -0.03500
C1250       C  0.35361891  0.16616050  0.96904004    -0.06100
C1251       C  0.33537812  0.18540781  0.96652967    -0.21200
C1252       C  0.33224529  0.20397423  0.98552139     0.24500
C1253       C  0.34837397  0.20337154  0.00688965    -0.18800
C1254       C  0.36668175  0.18417445  0.00939335    -0.08700
C1255       C  0.31239081  0.22390256  0.98198323    -0.19000
C1256       C  0.30114501  0.23619540  0.00159632    -0.23800
C1257       C  0.28081153  0.25578828  0.99867721     0.26600
C1258       C  0.27548194  0.27167746  0.01952639    -0.20600
C1259       C  0.25664511  0.29035514  0.01795239    -0.10200
C1260       C  0.24227835  0.29366578  0.99552758    -0.10800
C1261       C  0.24735915  0.27740370  0.97468729    -0.03700
C1262       C  0.26632397  0.25868474  0.97626764    -0.18800
H1263       H  0.35518921  0.15270501  0.95359323     0.10300
H1264       H  0.32350451  0.18569318  0.94965632     0.10300
H1265       H  0.34733354  0.21793010  0.02147740     0.10000
H1266       H  0.37896575  0.18437461  0.02596007     0.11100
H1267       H  0.30649931  0.22782551  0.96254337     0.11200
H1268       H  0.30705921  0.23183537  0.02096321     0.13100
H1269       H  0.28617403  0.26985679  0.03709304     0.09600
H1270       H  0.25344440  0.30258999  0.03431302     0.11700
H1271       H  0.23719871  0.27900335  0.95691454     0.08300
H1272       H  0.26925319  0.24645901  0.95992049     0.11100
C1273       C  0.43910293  0.23418513  0.99513236    -0.03500
C1274       C  0.43152872  0.24366912  0.97119756    -0.06100
C1275       C  0.41086097  0.26031189  0.96920274    -0.21200
C1276       C  0.39741424  0.26799182  0.99106088     0.24500
C1277       C  0.40433001  0.25765086  0.01490682    -0.18800
C1278       C  0.42501596  0.24101509  0.01690441    -0.08700
C1279       C  0.37654805  0.28694744  0.98822961    -0.19000
C1280       C  0.36962163  0.30297285  0.00714623    -0.23800
C1281       C  0.35026618  0.32358972  0.00470158     0.26600
C1282       C  0.34201259  0.33581251  0.02709425    -0.20600
C1283       C  0.32483434  0.35610563  0.02602289    -0.10200
C1284       C  0.31555372  0.36482967  0.00244620    -0.10800
C1285       C  0.32358490  0.35255297  0.97997842    -0.03700
C1286       C  0.34078777  0.33218754  0.98103600    -0.18800
H1287       H  0.44170735  0.23840091  0.95398890     0.10300
H1288       H  0.40570915  0.26766282  0.95056318     0.10300
H1289       H  0.39376408  0.26216703  0.03205916     0.10000
H1290       H  0.42996264  0.23348610  0.03552009     0.11100
H1291       H  0.36776674  0.28842188  0.96959075     0.11200
H1292       H  0.37906099  0.30149959  0.02548833     0.13100
H1293       H  0.34900146  0.32971357  0.04557550     0.09600
H1294       H  0.31894255  0.36506284  0.04370568     0.11700
H1295       H  0.31669994  0.35880044  0.96151761     0.08300
H1296       H  0.34686432  0.32378643  0.96321120     0.11100
C1297       C  0.82738612  0.34348764  0.95634004    -0.03500
C1298       C  0.82365897  0.33082913  0.93297403    -0.06100
C1299       C  0.84118024  0.33315519  0.91309498    -0.21200
C1300       C  0.86288745  0.34840238  0.91568158     0.24500
C1301       C  0.86628637  0.36192437  0.93868821    -0.18800
C1302       C  0.84870075  0.35946320  0.95875090    -0.08700
C1303       C  0.88118912  0.34893324  0.89385948    -0.19000
C1304       C  0.90321129  0.36205318  0.89312381    -0.23800
C1305       C  0.92118078  0.36065024  0.87106184     0.26600
C1306       C  0.94696186  0.36616551  0.87502712    -0.20600
C1307       C  0.96455619  0.36397830  0.85503004    -0.10200
C1308       C  0.95673548  0.35635656  0.83059632    -0.10800
C1309       C  0.93087725  0.35153982  0.82639641    -0.03700
C1310       C  0.91325679  0.35387326  0.84628191    -0.18800
H1311       H  0.80709491  0.31909162  0.92980742     0.10300
H1312       H  0.83775332  0.32276931  0.89555659     0.10300
H1313       H  0.88250258  0.37415522  0.94159776     0.10000
H1314       H  0.85224542  0.36966084  0.97628569     0.11100
H1315       H  0.87644755  0.33684780  0.87777242     0.11200
H1316       H  0.90911368  0.37317231  0.90948737     0.13100
H1317       H  0.95362743  0.37154905  0.89382438     0.09600
H1318       H  0.98436083  0.36729018  0.85898576     0.11700
H1319       H  0.92427134  0.34597158  0.80763666     0.08300
H1320       H  0.89348690  0.35048865  0.84198676     0.11100
C1321       C  0.82509547  0.35275073  0.04571483    -0.03500
C1322       C  0.81817036  0.34827441  0.07128300    -0.06100
C1323       C  0.83515135  0.35322637  0.09104627    -0.21200
C1324       C  0.85949161  0.36274080  0.08582486     0.24500
C1325       C  0.86586262  0.36882680  0.06033776    -0.18800
C1326       C  0.84876515  0.36385974  0.04050461    -0.08700
C1327       C  0.87765488  0.36462180  0.10747375    -0.19000
C1328       C  0.90291951  0.36739599  0.10477069    -0.23800
C1329       C  0.92071850  0.36535564  0.12660192     0.26600
C1330       C  0.94359061  0.37886250  0.12574586    -0.20600
C1331       C  0.96158414  0.37600318  0.14510184    -0.10200
C1332       C  0.95757211  0.35888861  0.16550032    -0.10800
C1333       C  0.93419180  0.34584467  0.16658329    -0.03700
C1334       C  0.91606771  0.34894134  0.14735229    -0.18800
H1335       H  0.79972458  0.34047274  0.07603643     0.10300
H1336       H  0.82950742  0.34875604  0.11046722     0.10300
H1337       H  0.88405318  0.37697029  0.05540023     0.10000
H1338       H  0.85453332  0.36772848  0.02105586     0.11100
H1339       H  0.86993804  0.36204319  0.12657069     0.11200
H1340       H  0.91122788  0.37076651  0.08611608     0.13100
H1341       H  0.94760744  0.39164008  0.10995161     0.09600
H1342       H  0.97870024  0.38703306  0.14346181     0.11700
H1343       H  0.92969098  0.33308394  0.18218038     0.08300
H1344       H  0.89880693  0.33780657  0.14841210     0.11100
C1345       C  0.58759513  0.09060404  0.04056068    -0.03500
C1346       C  0.60999869  0.07734978  0.04637980    -0.06100
C1347       C  0.60968404  0.05711711  0.06369039    -0.21200
C1348       C  0.58707950  0.04989779  0.07593606     0.24500
C1349       C  0.56438817  0.06264293  0.06951770    -0.18800
C1350       C  0.56466461  0.08275546  0.05178760    -0.08700
C1351       C  0.58845460  0.02912154  0.09523789    -0.19000
C1352       C  0.57176553  0.02592764  0.11454693    -0.23800
C1353       C  0.57561955  0.00656421  0.13501609     0.26600
C1354       C  0.55449935  0.99643634  0.14792515    -0.20600
C1355       C  0.55766866  0.97801594  0.16709539    -0.10200
C1356       C  0.58208176  0.96969927  0.17400003    -0.10800
C1357       C  0.60322358  0.98039023  0.16159050    -0.03700
C1358       C  0.60006851  0.99865451  0.14242705    -0.18800
H1359       H  0.62783732  0.08270793  0.03754203     0.10300
H1360       H  0.62735402  0.04743930  0.06799684     0.10300
H1361       H  0.54646367  0.05715036  0.07799962     0.10000
H1362       H  0.54713163  0.09261838  0.04737722     0.11100
H1363       H  0.60489665  0.01666963  0.09412223     0.11200
H1364       H  0.55493611  0.03782123  0.11569521     0.13100
H1365       H  0.53549482  0.00255164  0.14293031     0.09600
H1366       H  0.54103077  0.97047602  0.17665008     0.11700
H1367       H  0.62228725  0.97432460  0.16636070     0.08300
H1368       H  0.61689897  0.00671379  0.13372534     0.11100
C1369       C  0.58658692  0.96815822  0.83046888    -0.03500
C1370       C  0.56189544  0.97456891  0.83849188    -0.06100
C1371       C  0.55807297  0.99277553  0.85777106    -0.21200
C1372       C  0.57881499  0.00499477  0.86933647     0.24500
C1373       C  0.60350166  0.99814300  0.86152890    -0.18800
C1374       C  0.60728229  0.98015055  0.84229123    -0.08700
C1375       C  0.57432348  0.02405716  0.89004932    -0.19000
C1376       C  0.59146724  0.04222947  0.89587346    -0.23800
C1377       C  0.58927100  0.06084492  0.91722032     0.26600
C1378       C  0.61153920  0.07313081  0.92504367    -0.20600
C1379       C  0.61103474  0.09131640  0.94439974    -0.10200
C1380       C  0.58808403  0.09820761  0.95635794    -0.10800
C1381       C  0.56566800  0.08577079  0.94876234    -0.03700
C1382       C  0.56621799  0.06722813  0.92937144    -0.18800
H1383       H  0.54553229  0.96565459  0.82979892     0.10300
H1384       H  0.53886435  0.99741368  0.86358943     0.10300
H1385       H  0.62012313  0.00597648  0.87068073     0.10000
H1386       H  0.62658152  0.97500434  0.83733095     0.11100
H1387       H  0.55658423  0.02294054  0.90055933     0.11200
H1388       H  0.60872512  0.04350717  0.88460092     0.13100
H1389       H  0.62960337  0.06848771  0.91623590     0.09600
H1390       H  0.62889823  0.09962440  0.95019507     0.11700
H1391       H  0.54763499  0.09065643  0.95742215     0.08300
H1392       H  0.54855453  0.05846831  0.92365562     0.11100
C1393       C  0.62639927  0.17257281  0.00378369    -0.03500
C1394       C  0.62540339  0.19131416  0.98446349    -0.06100
C1395       C  0.64336885  0.21086853  0.98323062    -0.21200
C1396       C  0.66311659  0.21216633  0.00106488     0.24500
C1397       C  0.66392859  0.19394892  0.02082334    -0.18800
C1398       C  0.64584661  0.17441189  0.02216838    -0.08700
C1399       C  0.68204565  0.23310777  0.99866890    -0.19000
C1400       C  0.70578996  0.23180087  0.00815933    -0.23800
C1401       C  0.72452525  0.25290246  0.00583305     0.26600
C1402       C  0.74365218  0.25502113  0.02427052    -0.20600
C1403       C  0.76097760  0.27521701  0.02354254    -0.10200
C1404       C  0.75975610  0.29383550  0.00408219    -0.10800
C1405       C  0.74154607  0.29058729  0.98466600    -0.03700
C1406       C  0.72403205  0.27056936  0.98560253    -0.18800
H1407       H  0.61059493  0.19073988  0.97015113     0.10300
H1408       H  0.64201724  0.22486084  0.96803086     0.10300
H1409       H  0.67824585  0.19486314  0.03556284     0.10000
H1410       H  0.64746420  0.16107639  0.03775668     0.11100
H1411       H  0.67617404  0.25001803  0.98823625     0.11200
H1412       H  0.71171339  0.21498181  0.01868609     0.13100
H1413       H  0.74487371  0.24125289  0.03968596     0.09600
H1414       H  0.77510049  0.27577835  0.03836710     0.11700
H1415       H  0.74048307  0.30404964  0.96897672     0.08300
H1416       H  0.71030344  0.26895399  0.97035986     0.11100
C1417       C  0.55056738  0.23928866  0.00249087    -0.03500
C1418       C  0.55680343  0.25124205  0.02562339    -0.06100
C1419       C  0.57588203  0.26975657  0.02648109    -0.21200
C1420       C  0.58930225  0.27679643  0.00430992     0.24500
C1421       C  0.58334079  0.26439715  0.98118814    -0.18800
C1422       C  0.56416231  0.24594571  0.98033757    -0.08700
C1423       C  0.60898400  0.29721585  0.00649104    -0.19000
C1424       C  0.62240063  0.30693556  0.98671390    -0.23800
C1425       C  0.64129357  0.32802849  0.98909036     0.26600
C1426       C  0.64930839  0.34059821  0.96674568    -0.20600
C1427       C  0.66701833  0.36044022  0.96781107    -0.10200
C1428       C  0.67720734  0.36822685  0.99131169    -0.10800
C1429       C  0.66941516  0.35558578  0.01368792    -0.03700
C1430       C  0.65179511  0.33563558  0.01262575    -0.18800
H1431       H  0.54685393  0.24638251  0.04309738     0.10300
H1432       H  0.58006756  0.27874099  0.04461343     0.10300
H1433       H  0.59321174  0.26864912  0.96360498     0.10000
H1434       H  0.56003404  0.23681442  0.96227388     0.11100
H1435       H  0.61175558  0.30508130  0.02540465     0.11200
H1436       H  0.61901229  0.29999770  0.96756543     0.13100
H1437       H  0.64175680  0.33510472  0.94832521     0.09600
H1438       H  0.67271159  0.36969944  0.95019544     0.11700
H1439       H  0.67717760  0.36091392  0.03205934     0.08300
H1440       H  0.64693404  0.32611799  0.03028666     0.11100
C1441       C  0.59243541  0.88485923  0.83851467    -0.03500
C1442       C  0.61414883  0.87938354  0.85304410    -0.06100
C1443       C  0.61277849  0.86313148  0.87410800    -0.21200
C1444       C  0.58974711  0.85168670  0.88122791     0.24500
C1445       C  0.56777372  0.85745930  0.86698319    -0.18800
C1446       C  0.56912982  0.87405433  0.84588802    -0.08700
C1447       C  0.59011325  0.83400650  0.90356965    -0.19000
C1448       C  0.57215051  0.81648078  0.90908763    -0.23800
C1449       C  0.57540849  0.79694262  0.92964723     0.26600
C1450       C  0.55394897  0.78498237  0.94028201    -0.20600
C1451       C  0.55661440  0.76546243  0.95849139    -0.10200
C1452       C  0.58085123  0.75726120  0.96616589    -0.10800
C1453       C  0.60225509  0.76946031  0.95576611    -0.03700
C1454       C  0.59962260  0.78885730  0.93766686    -0.18800
H1455       H  0.63228126  0.88789599  0.84827866     0.10300
H1456       H  0.62997261  0.85926863  0.88476519     0.10300
H1457       H  0.54954071  0.84946640  0.87208030     0.10000
H1458       H  0.55207927  0.87807029  0.83508429     0.11100
H1459       H  0.60689220  0.83491646  0.91549968     0.11200
H1460       H  0.55483866  0.81576399  0.89795183     0.13100
H1461       H  0.53507681  0.79059426  0.93429854     0.09600
H1462       H  0.53973133  0.75631445  0.96595322     0.11700
H1463       H  0.62121025  0.76393675  0.96151111     0.08300
H1464       H  0.61675084  0.79679502  0.92949762     0.11100
C1465       C  0.57921420  0.74870088  0.05286284    -0.03500
C1466       C  0.58654918  0.74176049  0.07772617    -0.06100
C1467       C  0.58386994  0.75891518  0.09800884    -0.21200
C1468       C  0.57396579  0.78348282  0.09398331     0.24500
C1469       C  0.56568532  0.79008072  0.06925905    -0.18800
C1470       C  0.56839136  0.77291405  0.04896301    -0.08700
C1471       C  0.57311633  0.80154750  0.11598913    -0.19000
C1472       C  0.57158006  0.82714683  0.11347210    -0.23800
C1473       C  0.57349378  0.84550264  0.13514344     0.26600
C1474       C  0.56560616  0.87081335  0.13121192    -0.20600
C1475       C  0.56885753  0.88928317  0.15019260    -0.10200
C1476       C  0.58022573  0.88292588  0.17360764    -0.10800
C1477       C  0.58776816  0.85751103  0.17776197    -0.03700
C1478       C  0.58454077  0.83902881  0.15877122    -0.18800
H1479       H  0.59441886  0.72305997  0.08155374     0.10300
H1480       H  0.59008254  0.75312532  0.11686629     0.10300
H1481       H  0.55715445  0.80842076  0.06532559     0.10000
H1482       H  0.56262851  0.77897875  0.03007166     0.11100
H1483       H  0.57505507  0.79327380  0.13488015     0.11200
H1484       H  0.56954651  0.83544322  0.09460864     0.13100
H1485       H  0.55726342  0.87644936  0.11316224     0.09600
H1486       H  0.56321496  0.90872106  0.14610536     0.11700
H1487       H  0.59633370  0.85186554  0.19567965     0.08300
H1488       H  0.59148832  0.81999468  0.16254388     0.11100
C1489       C  0.95214615  0.51636793  0.82259982    -0.03500
C1490       C  0.92838060  0.52616805  0.81527216    -0.06100
C1491       C  0.90716364  0.52336152  0.83109791    -0.21200
C1492       C  0.90898779  0.51043927  0.85451263     0.24500
C1493       C  0.93260506  0.50004135  0.86163261    -0.18800
C1494       C  0.95387976  0.50290111  0.84576357    -0.08700
C1495       C  0.88635676  0.51005566  0.87161721    -0.19000
C1496       C  0.88292109  0.49322602  0.89084106    -0.23800
C1497       C  0.86155083  0.49484048  0.90952591     0.26600
C1498       C  0.86417567  0.48268378  0.93326588    -0.20600
C1499       C  0.84573265  0.48558828  0.95232248    -0.10200
C1500       C  0.82420658  0.50095829  0.94825966    -0.10800
C1501       C  0.82068820  0.51153207  0.92374738    -0.03700
C1502       C  0.83905994  0.50850697  0.90462993    -0.18800
H1503       H  0.92611191  0.53613572  0.79729608     0.10300
H1504       H  0.88924861  0.53156755  0.82510918     0.10300
H1505       H  0.93507756  0.49055046  0.87981207     0.10000
H1506       H  0.97182733  0.49532944  0.85216313     0.11100
H1507       H  0.87234053  0.52485264  0.86835879     0.11200
H1508       H  0.89697680  0.47842185  0.89400659     0.13100
H1509       H  0.88099089  0.47151487  0.93741650     0.09600
H1510       H  0.84899203  0.47630061  0.97037929     0.11700
H1511       H  0.80378269  0.52232832  0.91919866     0.08300
H1512       H  0.83546919  0.51702533  0.88617020     0.11100
C1513       C  0.82821869  0.50430569  0.03615079    -0.03500
C1514       C  0.85223560  0.49495382  0.02932394    -0.06100
C1515       C  0.87153366  0.49285885  0.04752396    -0.21200
C1516       C  0.86726767  0.49990422  0.07306903     0.24500
C1517       C  0.84286276  0.50857413  0.08006401    -0.18800
C1518       C  0.82362775  0.51072552  0.06179394    -0.08700
C1519       C  0.88928385  0.49988474  0.09100052    -0.19000
C1520       C  0.88731376  0.50308405  0.11650624    -0.23800
C1521       C  0.90947612  0.50675066  0.13374898     0.26600
C1522       C  0.90546648  0.51924699  0.15710580    -0.20600
C1523       C  0.92570901  0.52434060  0.17350525    -0.10200
C1524       C  0.95054712  0.51682923  0.16708995    -0.10800
C1525       C  0.95448052  0.50343558  0.14418235    -0.03700
C1526       C  0.93421345  0.49849302  0.12761843    -0.18800
H1527       H  0.85652779  0.49031512  0.00973268     0.10300
H1528       H  0.89010378  0.48630620  0.04144878     0.10300
H1529       H  0.83854297  0.51466413  0.09928325     0.10000
H1530       H  0.80520015  0.51782263  0.06766629     0.11100
H1531       H  0.90798191  0.49838620  0.08240812     0.11200
H1532       H  0.86873000  0.50468458  0.12525944     0.13100
H1533       H  0.88660169  0.52551593  0.16252674     0.09600
H1534       H  0.92180817  0.53400862  0.19135207     0.11700
H1535       H  0.97325403  0.49709312  0.13878577     0.08300
H1536       H  0.93806439  0.48806418  0.11022934     0.11100
C1537       C  0.62818807  0.68140524  0.00284738    -0.03500
C1538       C  0.65263269  0.69191570  0.00579708    -0.06100
C1539       C  0.67441177  0.67649192  0.00475328    -0.21200
C1540       C  0.67245608  0.65016343  0.00026467     0.24500
C1541       C  0.64816795  0.63959040  0.99712492    -0.18800
C1542       C  0.62647132  0.65490040  0.99819003    -0.08700
C1543       C  0.69578043  0.63393381  0.00021721    -0.19000
C1544       C  0.69714650  0.61146326  0.98769950    -0.23800
C1545       C  0.71905185  0.59342778  0.98877627     0.26600
C1546       C  0.72048461  0.57408715  0.97035132    -0.20600
C1547       C  0.73905202  0.55511368  0.97183755    -0.10200
C1548       C  0.75666918  0.55454511  0.99203585    -0.10800
C1549       C  0.75573153  0.57446817  0.01013935    -0.03700
C1550       C  0.73713887  0.59363193  0.00853751    -0.18800
H1551       H  0.65484419  0.71217485  0.00915553     0.10300
H1552       H  0.69286461  0.68517914  0.00741146     0.10300
H1553       H  0.64565353  0.61929448  0.99438636     0.10000
H1554       H  0.60867784  0.64533370  0.99519539     0.11100
H1555       H  0.71224035  0.64098988  0.01040903     0.11200
H1556       H  0.68136909  0.60583801  0.97566229     0.13100
H1557       H  0.70680151  0.57331300  0.95495090     0.09600
H1558       H  0.73916283  0.54021412  0.95751358     0.11700
H1559       H  0.76866101  0.57523413  0.02603902     0.08300
H1560       H  0.73645851  0.60791737  0.02340451     0.11100
C1561       C  0.67655632  0.47866037  0.99081202    -0.03500
C1562       C  0.67166117  0.49170991  0.96788429    -0.06100
C1563       C  0.65338939  0.51104983  0.96708796    -0.21200
C1564       C  0.63989345  0.51785133  0.98920096     0.24500
C1565       C  0.64469004  0.50466012  0.01210438    -0.18800
C1566       C  0.66292372  0.48536308  0.01290248    -0.08700
C1567       C  0.62007236  0.53783776  0.98749337    -0.19000
C1568       C  0.61337723  0.55252687  0.00750590    -0.23800
C1569       C  0.59240640  0.57145750  0.00684012     0.26600
C1570       C  0.58252903  0.58130116  0.98388477    -0.20600
C1571       C  0.56231484  0.59853275  0.98430495    -0.10200
C1572       C  0.55171578  0.60654012  0.00760358    -0.10800
C1573       C  0.56189742  0.59715437  0.03052992    -0.03700
C1574       C  0.58206291  0.57982632  0.03011856    -0.18800
H1575       H  0.68195810  0.48700105  0.95058327     0.10300
H1576       H  0.64985411  0.52081660  0.94918572     0.10300
H1577       H  0.63401533  0.50872534  0.02931156     0.10000
H1578       H  0.66613960  0.47548843  0.03079978     0.11100
H1579       H  0.61085896  0.54018218  0.96915360     0.11200
H1580       H  0.62314802  0.55010485  0.02558646     0.13100
H1581       H  0.59043676  0.57616555  0.96553373     0.09600
H1582       H  0.55517460  0.60582158  0.96632908     0.11700
H1583       H  0.55428886  0.60318829  0.04879190     0.08300
H1584       H  0.58945058  0.57272936  0.04807901     0.11100
C1585       C  0.44063951  0.60781378  0.01123104    -0.03500
C1586       C  0.43051432  0.60003627  0.03485763    -0.06100
C1587       C  0.41074486  0.58227609  0.03587756    -0.21200
C1588       C  0.40093853  0.57169512  0.01337204     0.24500
C1589       C  0.41052933  0.58005771  0.98969038    -0.18800
C1590       C  0.43019283  0.59790039  0.98866062    -0.08700
C1591       C  0.38062299  0.55218781  0.01528308    -0.19000
C1592       C  0.37768832  0.53353606  0.99785404    -0.23800
C1593       C  0.35786553  0.51342885  0.99941241     0.26600
C1594       C  0.35175403  0.49998545  0.97709769    -0.20600
C1595       C  0.33308879  0.48109155  0.97743090    -0.10200
C1596       C  0.32027543  0.47501661  0.00020862    -0.10800
C1597       C  0.32678714  0.48796228  0.02272102    -0.03700
C1598       C  0.34541095  0.50695747  0.02237620    -0.18800
H1599       H  0.43791693  0.60760724  0.05257292     0.10300
H1600       H  0.40341231  0.57640564  0.05432971     0.10300
H1601       H  0.40274749  0.57309319  0.97191315     0.10000
H1602       H  0.43725634  0.60388622  0.97014983     0.11100
H1603       H  0.36843222  0.55293914  0.03198369     0.11200
H1604       H  0.39028159  0.53292834  0.98141141     0.13100
H1605       H  0.36124958  0.50433701  0.95922675     0.09600
H1606       H  0.32864493  0.47129297  0.95979966     0.11700
H1607       H  0.31737287  0.48352479  0.04060254     0.08300
H1608       H  0.35009895  0.51616433  0.04020427     0.11100
loop_ 
_geom_bond_atom_site_label_1 
_geom_bond_atom_site_label_2 
_geom_bond_distance 
_geom_bond_site_symmetry_2 
_ccdc_geom_bond_type 
O1            V9   1.895       .  S
O1           C11   1.264   1_556  A
O2            V9   1.894       .  S
O2           C12   1.262   1_556  A
O3            V9   1.895       .  S
O3           C13   1.262   1_556  A
O4            V9   1.899       .  S
O4           C14   1.265   1_556  A
O5           V10   1.901       .  S
O5           C14   1.265       .  A
O6           V10   1.900       .  S
O6           C13   1.263       .  A
O7           V10   1.898       .  S
O7           C12   1.263       .  A
O8           V10   1.900       .  S
O8           C11   1.265       .  A
V9           V10   2.088   1_556  T
C11        C1572   1.476       .  S
C12         C134   1.462       .  S
C13          C34   1.464       .  S
C14        C1585   1.480       .  S
C15          C16   1.542   1_556  S
C15          C21   1.531       .  S
C15          C19   1.537       .  S
C15        C1548   1.534       .  S
C16          H23   1.082       .  S
C16          C17   1.371       .  D
C17        C1513   1.488       .  S
C17          C18   1.546   1_554  S
C18          C22   1.536       .  S
C18          C20   1.548       .  S
C18          H24   1.108       .  S
C19          H25   1.085       .  S
C19          C20   1.373       .  D
C20        C1500   1.499       .  S
C21          H26   1.088       .  S
C21          C22   1.360       .  D
C22          C51   1.469       .  S
C27          C28   1.535   1_554  S
C27          C33   1.537       .  S
C27          C31   1.541       .  S
C27        C1537   1.538       .  S
C28          H35   1.086       .  S
C28          C29   1.372       .  D
C29        C1452   1.491       .  S
C29          C30   1.544   1_556  S
C30          C34   1.532       .  S
C30          C32   1.544       .  S
C30          H36   1.109       .  S
C31          H37   1.085       .  S
C31          C32   1.373       .  D
C32        C1465   1.491       .  S
C33          H38   1.081       .  S
C33          C34   1.358       .  D
O39          V47   1.893       .  S
O39          C49   1.264   1_554  A
O40          V47   1.895       .  S
O40          C50   1.262   1_554  A
O41          V47   1.902       .  S
O41          C51   1.264   1_554  A
O42          V47   1.903       .  S
O42          C52   1.266   1_554  A
O43          V48   1.902       .  S
O43          C52   1.266       .  A
O44          V48   1.901       .  S
O44          C51   1.263       .  A
O45          V48   1.901       .  S
O45          C50   1.263       .  A
O46          V48   1.901       .  S
O46          C49   1.265       .  A
V47          V48   2.087   1_554  T
C49        C1561   1.475       .  S
C50          C72   1.464       .  S
C52        C1428   1.483       .  S
C53          C54   1.542       .  S
C53          C59   1.526       .  S
C53          C57   1.535   1_554  S
C53        C1393   1.531       .  S
C54          H61   1.081       .  S
C54          C55   1.370       .  D
C55        C1345   1.481       .  S
C55          C56   1.541       .  S
C56          C60   1.540       .  S
C56          C58   1.547   1_554  S
C56          H62   1.109   1_554  S
C57          H63   1.085       .  S
C57          C58   1.371       .  D
C58        C1380   1.495       .  S
C59          H64   1.087       .  S
C59          C60   1.361       .  D
C60          C89   1.468       .  S
C65          C66   1.532   1_554  S
C65          C71   1.532       .  S
C65          C69   1.539       .  S
C65        C1404   1.532       .  S
C66          H73   1.085       .  S
C66          C67   1.373       .  D
C67        C1297   1.496       .  S
C67          C68   1.549       .  S
C68          C72   1.535       .  S
C68          C70   1.544   1_556  S
C68          H74   1.109       .  S
C69          H75   1.080       .  S
C69          C70   1.369       .  D
C70        C1321   1.486       .  S
C71          H76   1.087       .  S
C71          C72   1.360   1_554  D
O77          V85   1.902       .  S
O77          C87   1.266       .  A
O78          V85   1.902       .  S
O78          C88   1.263   1_554  A
O79          V85   1.902       .  S
O79          C89   1.264       .  A
O80          V85   1.903       .  S
O80          C90   1.266   1_554  A
O81          V86   1.898       .  S
O81          C90   1.265       .  A
O82          V86   1.899       .  S
O82          C89   1.263   1_556  A
O83          V86   1.897       .  S
O83          C88   1.263       .  A
O84          V86   1.902       .  S
O84          C87   1.266   1_556  A
V85          V86   2.086   1_554  T
C87        C1417   1.483       .  S
C88         C110   1.466       .  S
C90        C1273   1.481       .  S
C91          C92   1.535   1_556  S
C91          C97   1.529       .  S
C91          C95   1.542       .  S
C91        C1260   1.530       .  S
C92          H99   1.086       .  S
C92          C93   1.370       .  D
C93        C1212   1.487       .  S
C93          C94   1.544   1_554  S
C94          C98   1.533       .  S
C94          C96   1.543       .  S
C94         H100   1.110       .  S
C95         H101   1.082       .  S
C95          C96   1.370       .  D
C96        C1236   1.484       .  S
C97         H102   1.087       .  S
C97          C98   1.360       .  D
C98         C150   1.462       .  S
C103        C104   1.542       .  S
C103        C109   1.527       .  S
C103        C107   1.537   1_556  S
C103       C1249   1.531       .  S
C104        H111   1.082       .  S
C104        C105   1.368       .  D
C105       C1177   1.477       .  S
C105        C106   1.539   1_556  S
C106        C110   1.535   1_554  S
C106        C108   1.544       .  S
C106        H112   1.110       .  S
C107        H113   1.086       .  S
C107        C108   1.371       .  D
C108       C1164   1.486       .  S
C109        H114   1.087       .  S
C109        C110   1.361       .  D
C115        C116   1.540       .  S
C115        C121   1.530       .  S
C115        C119   1.534   1_556  S
C115       C1140   1.531   1_556  S
C116        H123   1.081       .  S
C116        C117   1.371       .  D
C117       C1116   1.491       .  S
C117        C118   1.548       .  S
C118        C122   1.539       .  S
C118        C120   1.552   1_556  S
C118        H124   1.109       .  S
C119        H125   1.085       .  S
C119        C120   1.372       .  D
C120       C1092   1.499       .  S
C121        H126   1.088   1_556  S
C121        C122   1.359       .  D
C122        C151   1.470       .  S
C127        C128   1.536       .  S
C127        C133   1.533       .  S
C127        C131   1.539   1_554  S
C127       C1129   1.534       .  S
C128        H135   1.085       .  S
C128        C129   1.374       .  D
C129       C1057   1.491       .  S
C129        C130   1.545       .  S
C130        C134   1.533       .  S
C130        C132   1.543   1_554  S
C130        H136   1.109       .  S
C131        H137   1.085       .  S
C131        C132   1.370       .  D
C132       C1033   1.488       .  S
C133        H138   1.082       .  S
C133        C134   1.358       .  D
O139        V147   1.895       .  S
O139        C149   1.264   1_556  A
O140        V147   1.893       .  S
O140        C150   1.261       .  A
O141        V147   1.903       .  S
O141        C151   1.264       .  A
O142        V147   1.904       .  S
O142        C152   1.266   1_556  A
O143        V148   1.899       .  S
O143        C152   1.265       .  A
O144        V148   1.902       .  S
O144        C151   1.264   1_554  A
O145        V148   1.900       .  S
O145        C150   1.264   1_554  A
O146        V148   1.902       .  S
O146        C149   1.266       .  A
V147        V148   2.087   1_556  T
C149       C1596   1.478       .  S
C152       C1284   1.482       .  S
O153        V161   1.898       .  S
O153        C163   1.264       .  A
O154        V161   1.894       .  S
O154        C164   1.261       .  A
O155        V161   1.901       .  S
O155        C165   1.264       .  A
O156        V161   1.905       .  S
O156        C166   1.266       .  A
O157        V162   1.895       .  S
O157        C166   1.264       .  A
O158        V162   1.898       .  S
O158        C165   1.263       .  A
O159        V162   1.898       .  S
O159        C164   1.263       .  A
O160        V162   1.898       .  S
O160        C163   1.265       .  A
V161        V162   2.088       .  T
C163        C985   1.477       .  S
C164        C224   1.460       .  S
C165        C186   1.466       .  S
C166       C1020   1.479       .  S
C167        C168   1.541       .  S
C167        C173   1.532       .  S
C167        C171   1.535       .  S
C167        C961   1.532       .  S
C168        H175   1.080       .  S
C168        C169   1.369       .  D
C169        C913   1.488       .  S
C169        C170   1.544       .  S
C170        C174   1.532       .  S
C170        C172   1.547       .  S
C170        H176   1.109       .  S
C171        H177   1.085       .  S
C171        C172   1.371       .  D
C172        C937   1.492       .  S
C173        H178   1.087       .  S
C173        C174   1.361       .  D
C174        C202   1.462       .  S
C179        C180   1.537       .  S
C179        C185   1.528       .  S
C179        C183   1.542       .  S
C179        C972   1.532       .  S
C180        H187   1.086       .  S
C180        C181   1.371       .  D
C181       C1369   1.489       .  S
C181        C182   1.542       .  S
C182        C186   1.539       .  S
C182        C184   1.544       .  S
C182        H188   1.109       .  S
C183        H189   1.081       .  S
C183        C184   1.371       .  D
C184       C1441   1.488       .  S
C185        H190   1.088       .  S
C185        C186   1.360       .  D
O191        V199   1.899       .  S
O191        C201   1.265       .  A
O192        V199   1.897       .  S
O192        C202   1.263       .  A
O193        V199   1.903       .  S
O193        C203   1.264       .  A
O194        V199   1.905       .  S
O194        C204   1.266       .  A
O195        V200   1.894       .  S
O195        C204   1.264       .  A
O196        V200   1.896       .  S
O196        C203   1.262       .  A
O197        V200   1.896       .  S
O197        C202   1.262       .  A
O198        V200   1.897       .  S
O198        C201   1.264       .  A
V199        V200   2.088       .  T
C201        C889   1.478       .  S
C203        C286   1.467       .  S
C204        C996   1.479       .  S
C205        C206   1.534       .  S
C205        C211   1.531       .  S
C205        C209   1.543       .  S
C205        C865   1.533       .  S
C206        H213   1.086       .  S
C206        C207   1.371       .  D
C207        C817   1.491       .  S
C207        C208   1.548       .  S
C208        C212   1.535       .  S
C208        C210   1.543       .  S
C208        H214   1.110       .  S
C209        H215   1.080       .  S
C209        C210   1.369       .  D
C210        C841   1.488       .  S
C211        H216   1.088       .  S
C211        C212   1.361       .  D
C212        C241   1.463       .  S
C217        C218   1.547       .  S
C217        C223   1.527       .  S
C217        C221   1.537       .  S
C217        C876   1.529       .  S
C218        H225   1.082       .  S
C218        C219   1.374       .  D
C219       C1044   1.485       .  S
C219        C220   1.541       .  S
C220        C224   1.533       .  S
C220        C222   1.538       .  S
C220        H226   1.110       .  S
C221        H227   1.086       .  S
C221        C222   1.368       .  D
C222       C1188   1.484       .  S
C223        H228   1.088       .  S
C223        C224   1.358       .  D
O229        V237   1.897       .  S
O229        C239   1.264       .  A
O230        V237   1.896       .  S
O230        C240   1.262       .  A
O231        V237   1.898       .  S
O231        C241   1.262       .  A
O232        V237   1.897       .  S
O232        C242   1.264       .  A
O233        V238   1.897       .  S
O233        C242   1.264       .  A
O234        V238   1.897       .  S
O234        C241   1.263       .  A
O235        V238   1.899       .  S
O235        C240   1.263       .  A
O236        V238   1.900       .  S
O236        C239   1.265       .  A
V237        V238   2.089       .  T
C239       C1009   1.478       .  S
C240        C262   1.463       .  S
C242        C793   1.475       .  S
C243        C244   1.535       .  S
C243        C249   1.528       .  S
C243        C247   1.542       .  S
C243        C780   1.532       .  S
C244        H251   1.085       .  S
C244        C245   1.370       .  D
C245       C1153   1.489       .  S
C245        C246   1.545       .  S
C246        C250   1.538       .  S
C246        C248   1.546       .  S
C246        H252   1.109       .  S
C247        H253   1.080       .  S
C247        C248   1.371       .  D
C248       C1068   1.492       .  S
C249        H254   1.088       .  S
C249        C250   1.361       .  D
C250        C303   1.466       .  S
C255        C256   1.541       .  S
C255        C261   1.528       .  S
C255        C259   1.535       .  S
C255        C769   1.531       .  S
C256        H263   1.081       .  S
C256        C257   1.368       .  D
C257        C745   1.483       .  S
C257        C258   1.542       .  S
C258        C262   1.534       .  S
C258        C260   1.551       .  S
C258        H264   1.107       .  S
C259        H265   1.083       .  S
C259        C260   1.375       .  D
C260        C732   1.502       .  S
C261        H266   1.088       .  S
C261        C262   1.359       .  D
C267        C268   1.537       .  S
C267        C273   1.538       .  S
C267        C271   1.539       .  S
C267        C697   1.536       .  S
C268        H275   1.085       .  S
C268        C269   1.373       .  D
C269       C1476   1.491       .  S
C269        C270   1.545       .  S
C270        C274   1.529       .  S
C270        C272   1.540       .  S
C270        H276   1.109       .  S
C271        H277   1.086       .  S
C271        C272   1.370       .  D
C272       C1356   1.486       .  S
C273        H278   1.082       .  S
C273        C274   1.360       .  D
C274        C302   1.463       .  S
C279        C280   1.541       .  S
C279        C285   1.528       .  S
C279        C283   1.535       .  S
C279        C708   1.533       .  S
C280        H287   1.079       .  S
C280        C281   1.375       .  D
C281        C673   1.497       .  S
C281        C282   1.550       .  S
C282        C286   1.537       .  S
C282        C284   1.549       .  S
C282        H288   1.108       .  S
C283        H289   1.086       .  S
C283        C284   1.370       .  D
C284        C649   1.493       .  S
C285        H290   1.088       .  S
C285        C286   1.358       .  D
O291        V299   1.904       .  S
O291        C301   1.265       .  A
O292        V299   1.900       .  S
O292        C302   1.263       .  A
O293        V299   1.904       .  S
O293        C303   1.264       .  A
O294        V299   1.903       .  S
O294        C304   1.266       .  A
O295        V300   1.895       .  S
O295        C304   1.264       .  A
O296        V300   1.895       .  S
O296        C303   1.262       .  A
O297        V300   1.892       .  S
O297        C302   1.262       .  A
O298        V300   1.890       .  S
O298        C301   1.263       .  A
V299        V300   2.088       .  T
C301        C804   1.476       .  S
C304        C900   1.478       .  S
O305        V313   1.889       .  S
O305        C315   1.263   1_455  A
O306        V313   1.896       .  S
O306        C316   1.262   1_455  A
O307        V313   1.904       .  S
O307        C317   1.265   1_455  A
O308        V313   1.899       .  S
O308        C318   1.264   1_455  A
O309        V314   1.902       .  S
O309        C318   1.264       .  A
O310        V314   1.901       .  S
O310        C317   1.263       .  A
O311        V314   1.901       .  S
O311        C316   1.264       .  A
O312        V314   1.904       .  S
O312        C315   1.266       .  A
V313        V314   2.087   1_455  T
C315        C601   1.474       .  S
C316        C338   1.465   1_655  S
C317        C414   1.471       .  S
C318        C636   1.468       .  S
C319        C320   1.543   1_655  S
C319        C325   1.530       .  S
C319        C323   1.534       .  S
C319        C588   1.532       .  S
C320        H327   1.082       .  S
C320        C321   1.374       .  D
C321        C852   1.491       .  S
C321        C322   1.547   1_455  S
C322        C326   1.533       .  S
C322        C324   1.547       .  S
C322        H328   1.108       .  S
C323        H329   1.085       .  S
C323        C324   1.370       .  D
C324        C924   1.494       .  S
C325        H330   1.087   1_655  S
C325        C326   1.359       .  D
C326        C355   1.466       .  S
C331        C332   1.534   1_455  S
C331        C337   1.534       .  S
C331        C335   1.542       .  S
C331        C577   1.535       .  S
C332        H339   1.086       .  S
C332        C333   1.370       .  D
C333       C1489   1.492       .  S
C333        C334   1.546       .  S
C334        C338   1.533   1_655  S
C334        C336   1.547   1_655  S
C334        H340   1.109       .  S
C335        H341   1.079       .  S
C335        C336   1.372       .  D
C336       C1105   1.494       .  S
C337        H342   1.087       .  S
C337        C338   1.362       .  D
O343        V351   1.900       .  S
O343        C353   1.265   1_455  A
O344        V351   1.899       .  S
O344        C354   1.263       .  A
O345        V351   1.895       .  S
O345        C355   1.262   1_455  A
O346        V351   1.898       .  S
O346        C356   1.265   1_455  A
O347        V352   1.903       .  S
O347        C356   1.265       .  A
O348        V352   1.903       .  S
O348        C355   1.264       .  A
O349        V352   1.898       .  S
O349        C354   1.263   1_655  A
O350        V352   1.900       .  S
O350        C353   1.264       .  A
V351        V352   2.088   1_455  T
C353        C625   1.475       .  S
C354        C376   1.466       .  S
C356        C553   1.480       .  S
C357        C358   1.544   1_655  S
C357        C363   1.531       .  S
C357        C361   1.537       .  S
C357        C529   1.533       .  S
C358        H365   1.082       .  S
C358        C359   1.371       .  D
C359       C1081   1.485       .  S
C359        C360   1.542   1_455  S
C360        C364   1.533       .  S
C360        C362   1.544       .  S
C360        H366   1.110       .  S
C361        H367   1.086       .  S
C361        C362   1.372       .  D
C362       C1524   1.490       .  S
C363        H368   1.088       .  S
C363        C364   1.359       .  D
C364        C393   1.462       .  S
C369        C370   1.537   1_455  S
C369        C375   1.539       .  S
C369        C373   1.536       .  S
C369        C540   1.537       .  S
C370        H377   1.086       .  S
C370        C371   1.371       .  D
C371        C660   1.488       .  S
C371        C372   1.543   1_655  S
C372        C376   1.532       .  S
C372        C374   1.546       .  S
C372        H378   1.110       .  S
C373        H379   1.086       .  S
C373        C374   1.371       .  D
C374        C756   1.489       .  S
C375        H380   1.081       .  S
C375        C376   1.361       .  D
O381        V389   1.899       .  S
O381        C391   1.265   1_455  A
O382        V389   1.897       .  S
O382        C392   1.262   1_455  A
O383        V389   1.893       .  S
O383        C393   1.261   1_455  A
O384        V389   1.892       .  S
O384        C394   1.263   1_455  A
O385        V390   1.903       .  S
O385        C394   1.266       .  A
O386        V390   1.902       .  S
O386        C393   1.264       .  A
O387        V390   1.897       .  S
O387        C392   1.263       .  A
O388        V390   1.899       .  S
O388        C391   1.265       .  A
V389        V390   2.088   1_455  T
C391        C564   1.479       .  S
C392        C438   1.463   1_655  S
C394        C516   1.477       .  S
C395        C396   1.545   1_455  S
C395        C401   1.531       .  S
C395        C399   1.537       .  S
C395        C481   1.537       .  S
C396        H403   1.081       .  S
C396        C397   1.369       .  D
C397        C948   1.489       .  S
C397        C398   1.545   1_655  S
C398        C402   1.536       .  S
C398        C400   1.550       .  S
C398        H404   1.108       .  S
C399        H405   1.085       .  S
C399        C400   1.374       .  D
C400        C828   1.500       .  S
C401        H406   1.087       .  S
C401        C402   1.361       .  D
C402        C454   1.469       .  S
C407        C408   1.539   1_655  S
C407        C413   1.529       .  S
C407        C411   1.544       .  S
C407        C492   1.537       .  S
C408        H415   1.083       .  S
C408        C409   1.378       .  D
C409       C1225   1.503       .  S
C409        C410   1.551   1_455  S
C410        C414   1.537       .  S
C410        C412   1.541       .  S
C410        H416   1.106       .  S
C411        H417   1.081       .  S
C411        C412   1.367       .  D
C412       C1308   1.487       .  S
C413        H418   1.087       .  S
C413        C414   1.361       .  D
C419        C420   1.537       .  S
C419        C425   1.533       .  S
C419        C423   1.544   1_455  S
C419        C457   1.534       .  S
C420        H427   1.085       .  S
C420        C421   1.371       .  D
C421        C721   1.494       .  S
C421        C422   1.545       .  S
C422        C426   1.530       .  S
C422        C424   1.542   1_455  S
C422        H428   1.109       .  S
C423        H429   1.081       .  S
C423        C424   1.371       .  D
C424        C684   1.486       .  S
C425        H430   1.087       .  S
C425        C426   1.361       .  D
C426        C455   1.463       .  S
C431        C432   1.539   1_455  S
C431        C437   1.528       .  S
C431        C435   1.542       .  S
C431        C468   1.533   1_455  S
C432        H439   1.084       .  S
C432        C433   1.375       .  D
C433       C1332   1.501       .  S
C433        C434   1.548   1_655  S
C434        C438   1.532       .  S
C434        C436   1.544       .  S
C434        H440   1.107       .  S
C435        H441   1.081       .  S
C435        C436   1.370       .  D
C436       C1201   1.488       .  S
C437        H442   1.088   1_455  S
C437        C438   1.359       .  D
O443        V451   1.900       .  S
O443        C453   1.265   1_455  A
O444        V451   1.901       .  S
O444        C454   1.264       .  A
O445        V451   1.894       .  S
O445        C455   1.261       .  A
O446        V451   1.890       .  S
O446        C456   1.263   1_455  A
O447        V452   1.899       .  S
O447        C456   1.265       .  A
O448        V452   1.900       .  S
O448        C455   1.263   1_655  A
O449        V452   1.902       .  S
O449        C454   1.264   1_655  A
O450        V452   1.897       .  S
O450        C453   1.264       .  A
V451        V452   2.088   1_455  T
C453        C505   1.477       .  S
C456        C612   1.473       .  S
C457        C458   1.410       .  A
C457        C462   1.412   1_455  A
C458        C459   1.398       .  A
C458        H471   1.083       .  S
C459        C460   1.401       .  A
C459        H472   1.083       .  S
C460        C463   1.490       .  S
C460        C461   1.407   1_455  A
C461        C462   1.403       .  A
C461        H473   1.082       .  S
C462        H474   1.077       .  S
C463        H475   1.086       .  S
C463        C464   1.348   1_455  D
C464        C465   1.489       .  S
C464        H476   1.086       .  S
C465        C466   1.401       .  A
C465        C470   1.406   1_655  A
C466        C467   1.398       .  A
C466        H477   1.083       .  S
C467        C468   1.410       .  A
C467        H478   1.083       .  S
C468        C469   1.412   1_655  A
C469        C470   1.402       .  A
C469        H479   1.077       .  S
C470        H480   1.082       .  S
C481        C482   1.410       .  A
C481        C486   1.411   1_455  A
C482        C483   1.400       .  A
C482        H495   1.083       .  S
C483        C484   1.404       .  A
C483        H496   1.083       .  S
C484        C487   1.500       .  S
C484        C485   1.410   1_455  A
C485        C486   1.403       .  A
C485        H497   1.080       .  S
C486        H498   1.077       .  S
C487        H499   1.083       .  S
C487        C488   1.352   1_455  D
C488        C489   1.499       .  S
C488        H500   1.083       .  S
C489        C490   1.404       .  A
C489        C494   1.410   1_655  A
C490        C491   1.398       .  A
C490        H501   1.084       .  S
C491        C492   1.410       .  A
C491        H502   1.076       .  S
C492        C493   1.411   1_655  A
C493        C494   1.404       .  A
C493        H503   1.083       .  S
C494        H504   1.080       .  S
C505        C506   1.405       .  A
C505        C510   1.404   1_655  A
C506        C507   1.397       .  A
C506        H519   1.083       .  S
C507        C508   1.403       .  A
C507        H520   1.083       .  S
C508        C511   1.485       .  S
C508        C509   1.409   1_655  A
C509        C510   1.397       .  A
C509        H521   1.081       .  S
C510        H522   1.083       .  S
C511        H523   1.085       .  S
C511        C512   1.346   1_655  D
C512        C513   1.483   1_455  S
C512        H524   1.085       .  S
C513        C514   1.401   1_655  A
C513        C518   1.409       .  A
C514        C515   1.394       .  A
C514        H525   1.084       .  S
C515        C516   1.405   1_455  A
C515        H526   1.083       .  S
C516        C517   1.405       .  A
C517        C518   1.400       .  A
C517        H527   1.083       .  S
C518        H528   1.081       .  S
C529        C530   1.409       .  A
C529        C534   1.412   1_655  A
C530        C531   1.397       .  A
C530        H543   1.083       .  S
C531        C532   1.401       .  A
C531        H544   1.083       .  S
C532        C535   1.491       .  S
C532        C533   1.408   1_655  A
C533        C534   1.404       .  A
C533        H545   1.082       .  S
C534        H546   1.077       .  S
C535        H547   1.086       .  S
C535        C536   1.349   1_655  D
C536        C537   1.491       .  S
C536        H548   1.085       .  S
C537        C538   1.403       .  A
C537        C542   1.405       .  A
C538        C539   1.402       .  A
C538        H549   1.083       .  S
C539        C540   1.410       .  A
C539        H550   1.083       .  S
C540        C541   1.414       .  A
C541        C542   1.399       .  A
C541        H551   1.076   1_455  S
C542        H552   1.083   1_455  S
C553        C554   1.405   1_655  A
C553        C558   1.405       .  A
C554        C555   1.397       .  A
C554        H567   1.083       .  S
C555        C556   1.403   1_455  A
C555        H568   1.083       .  S
C556        C559   1.486   1_655  S
C556        C557   1.408       .  A
C557        C558   1.399       .  A
C557        H569   1.081       .  S
C558        H570   1.083       .  S
C559        H571   1.085       .  S
C559        C560   1.348   1_455  D
C560        C561   1.487       .  S
C560        H572   1.084       .  S
C561        C562   1.404       .  A
C561        C566   1.408   1_655  A
C562        C563   1.398       .  A
C562        H573   1.083       .  S
C563        C564   1.405       .  A
C563        H574   1.083       .  S
C564        C565   1.404   1_655  A
C565        C566   1.397       .  A
C565        H575   1.083       .  S
C566        H576   1.081       .  S
C577        C578   1.410       .  A
C577        C582   1.410   1_455  A
C578        C579   1.400       .  A
C578        H591   1.077       .  S
C579        C580   1.403       .  A
C579        H592   1.083       .  S
C580        C583   1.494       .  S
C580        C581   1.408   1_455  A
C581        C582   1.400       .  A
C581        H593   1.081       .  S
C582        H594   1.083       .  S
C583        H595   1.083       .  S
C583        C584   1.349   1_455  D
C584        C585   1.494       .  S
C584        H596   1.084       .  S
C585        C586   1.402       .  A
C585        C590   1.411   1_655  A
C586        C587   1.395       .  A
C586        H597   1.084       .  S
C587        C588   1.409       .  A
C587        H598   1.083       .  S
C588        C589   1.410   1_655  A
C589        C590   1.404       .  A
C589        H599   1.078       .  S
C590        H600   1.080       .  S
C601        C602   1.405       .  A
C601        C606   1.404   1_655  A
C602        C603   1.399       .  A
C602        H615   1.083       .  S
C603        C604   1.403       .  A
C603        H616   1.083       .  S
C604        C607   1.481       .  S
C604        C605   1.406   1_655  A
C605        C606   1.392       .  A
C605        H617   1.082       .  S
C606        H618   1.083       .  S
C607        H619   1.084       .  S
C607        C608   1.346       .  D
C608        C609   1.480       .  S
C608        H620   1.086   1_655  S
C609        C610   1.402   1_655  A
C609        C614   1.407       .  A
C610        C611   1.393       .  A
C610        H621   1.084       .  S
C611        C612   1.404   1_455  A
C611        H622   1.083       .  S
C612        C613   1.404       .  A
C613        C614   1.398       .  A
C613        H623   1.083       .  S
C614        H624   1.081       .  S
C625        C626   1.405   1_655  A
C625        C630   1.404       .  A
C626        C627   1.398       .  A
C626        H639   1.083       .  S
C627        C628   1.401   1_455  A
C627        H640   1.083       .  S
C628        C631   1.479       .  S
C628        C629   1.406       .  A
C629        C630   1.399       .  A
C629        H641   1.083       .  S
C630        H642   1.083       .  S
C631        H643   1.087       .  S
C631        C632   1.343       .  D
C632        C633   1.479       .  S
C632        H644   1.087       .  S
C633        C634   1.403       .  A
C633        C638   1.406       .  A
C634        C635   1.397       .  A
C634        H645   1.083   1_655  S
C635        C636   1.401       .  A
C635        H646   1.083   1_655  S
C636        C637   1.403       .  A
C637        C638   1.400       .  A
C637        H647   1.083       .  S
C638        H648   1.083       .  S
C649        C650   1.404       .  A
C649        C654   1.407       .  A
C650        C651   1.399       .  A
C650        H663   1.077       .  S
C651        C652   1.403       .  A
C651        H664   1.083       .  S
C652        C655   1.492       .  S
C652        C653   1.409       .  A
C653        C654   1.399       .  A
C653        H665   1.081       .  S
C654        H666   1.082       .  S
C655        H667   1.084       .  S
C655        C656   1.349       .  D
C656        C657   1.491       .  S
C656        H668   1.085       .  S
C657        C658   1.404       .  A
C657        C662   1.409       .  A
C658        C659   1.397       .  A
C658        H669   1.083       .  S
C659        C660   1.404       .  A
C659        H670   1.083       .  S
C660        C661   1.404       .  A
C661        C662   1.402       .  A
C661        H671   1.079       .  S
C662        H672   1.081       .  S
C673        C674   1.408   1_565  A
C673        C678   1.406       .  A
C674        C675   1.396       .  A
C674        H687   1.081       .  S
C675        C676   1.402       .  A
C675        H688   1.084       .  S
C676        C679   1.490       .  S
C676        C677   1.408       .  A
C677        C678   1.399   1_545  A
C677        H689   1.079   1_545  S
C678        H690   1.076       .  S
C679        H691   1.085       .  S
C679        C680   1.348       .  D
C680        C681   1.488       .  S
C680        H692   1.083       .  S
C681        C682   1.402       .  A
C681        C686   1.409       .  A
C682        C683   1.398       .  A
C682        H693   1.084       .  S
C683        C684   1.404       .  A
C683        H694   1.075       .  S
C684        C685   1.404       .  A
C685        C686   1.398       .  A
C685        H695   1.083       .  S
C686        H696   1.080       .  S
C697        C698   1.409       .  A
C697        C702   1.413       .  A
C698        C699   1.401       .  A
C698        H711   1.083       .  S
C699        C700   1.403       .  A
C699        H712   1.083       .  S
C700        C703   1.490       .  S
C700        C701   1.405       .  A
C701        C702   1.398       .  A
C701        H713   1.082       .  S
C702        H714   1.076       .  S
C703        H715   1.085       .  S
C703        C704   1.349       .  D
C704        C705   1.489       .  S
C704        H716   1.086       .  S
C705        C706   1.401       .  A
C705        C710   1.407       .  A
C706        C707   1.396       .  A
C706        H717   1.083       .  S
C707        C708   1.409       .  A
C707        H718   1.083       .  S
C708        C709   1.412       .  A
C709        C710   1.403       .  A
C709        H719   1.077       .  S
C710        H720   1.082       .  S
C721        C722   1.407       .  A
C721        C726   1.406       .  A
C722        C723   1.398       .  A
C722        H735   1.082       .  S
C723        C724   1.404       .  A
C723        H736   1.083       .  S
C724        C727   1.491       .  S
C724        C725   1.408       .  A
C725        C726   1.398       .  A
C725        H737   1.080       .  S
C726        H738   1.074       .  S
C727        H739   1.084       .  S
C727        C728   1.350       .  D
C728        C729   1.489       .  S
C728        H740   1.082       .  S
C729        C730   1.402   1_545  A
C729        C734   1.406       .  A
C730        C731   1.399       .  A
C730        H741   1.083       .  S
C731        C732   1.408       .  A
C731        H742   1.077       .  S
C732        C733   1.411   1_565  A
C733        C734   1.397       .  A
C733        H743   1.080       .  S
C734        H744   1.081       .  S
C745        C746   1.401       .  A
C745        C750   1.404       .  A
C746        C747   1.397       .  A
C746        H759   1.080       .  S
C747        C748   1.404       .  A
C747        H760   1.083       .  S
C748        C751   1.488       .  S
C748        C749   1.409       .  A
C749        C750   1.397       .  A
C749        H761   1.080       .  S
C750        H762   1.083       .  S
C751        H763   1.085       .  S
C751        C752   1.348       .  D
C752        C753   1.486       .  S
C752        H764   1.083       .  S
C753        C754   1.402       .  A
C753        C758   1.407       .  A
C754        C755   1.397       .  A
C754        H765   1.084       .  S
C755        C756   1.407       .  A
C755        H766   1.082       .  S
C756        C757   1.404       .  A
C757        C758   1.398       .  A
C757        H767   1.078       .  S
C758        H768   1.081       .  S
C769        C770   1.410       .  A
C769        C774   1.410       .  A
C770        C771   1.398       .  A
C770        H783   1.083       .  S
C771        C772   1.402       .  A
C771        H784   1.083       .  S
C772        C775   1.492       .  S
C772        C773   1.408       .  A
C773        C774   1.399       .  A
C773        H785   1.081       .  S
C774        H786   1.077       .  S
C775        H787   1.084       .  S
C775        C776   1.349       .  D
C776        C777   1.490       .  S
C776        H788   1.084       .  S
C777        C778   1.402       .  A
C777        C782   1.407       .  A
C778        C779   1.398       .  A
C778        H789   1.084       .  S
C779        C780   1.410       .  A
C779        H790   1.076       .  S
C780        C781   1.411       .  A
C781        C782   1.400       .  A
C781        H791   1.083       .  S
C782        H792   1.081       .  S
C793        C794   1.403       .  A
C793        C798   1.405       .  A
C794        C795   1.395       .  A
C794        H807   1.083       .  S
C795        C796   1.403       .  A
C795        H808   1.084       .  S
C796        C799   1.481       .  S
C796        C797   1.406       .  A
C797        C798   1.397       .  A
C797        H809   1.081       .  S
C798        H810   1.083       .  S
C799        H811   1.084       .  S
C799        C800   1.347       .  D
C800        C801   1.485       .  S
C800        H812   1.085       .  S
C801        C802   1.405       .  A
C801        C806   1.407       .  A
C802        C803   1.400       .  A
C802        H813   1.083       .  S
C803        C804   1.405       .  A
C803        H814   1.083       .  S
C804        C805   1.403       .  A
C805        C806   1.392       .  A
C805        H815   1.083       .  S
C806        H816   1.081       .  S
C817        C818   1.406   1_565  A
C817        C822   1.404       .  A
C818        C819   1.397       .  A
C818        H831   1.082       .  S
C819        C820   1.404       .  A
C819        H832   1.083       .  S
C820        C823   1.492       .  S
C820        C821   1.410   1_545  A
C821        C822   1.401       .  A
C821        H833   1.080       .  S
C822        H834   1.079       .  S
C823        H835   1.083       .  S
C823        C824   1.350       .  D
C824        C825   1.494       .  S
C824        H836   1.084       .  S
C825        C826   1.403       .  A
C825        C830   1.409       .  A
C826        C827   1.399       .  A
C826        H837   1.083       .  S
C827        C828   1.406       .  A
C827        H838   1.076       .  S
C828        C829   1.409       .  A
C829        C830   1.400       .  A
C829        H839   1.081       .  S
C830        H840   1.080       .  S
C841        C842   1.405       .  A
C841        C846   1.404       .  A
C842        C843   1.395       .  A
C842        H855   1.083       .  S
C843        C844   1.402       .  A
C843        H856   1.083       .  S
C844        C847   1.489       .  S
C844        C845   1.409       .  A
C845        C846   1.403       .  A
C845        H857   1.081       .  S
C846        H858   1.080       .  S
C847        H859   1.085       .  S
C847        C848   1.348       .  D
C848        C849   1.491       .  S
C848        H860   1.085       .  S
C849        C850   1.403       .  A
C849        C854   1.409       .  A
C850        C851   1.400       .  A
C850        H861   1.083       .  S
C851        C852   1.405       .  A
C851        H862   1.078       .  S
C852        C853   1.406       .  A
C853        C854   1.399       .  A
C853        H863   1.083       .  S
C854        H864   1.081       .  S
C865        C866   1.410       .  A
C865        C870   1.411       .  A
C866        C867   1.398       .  A
C866        H879   1.076       .  S
C867        C868   1.402       .  A
C867        H880   1.084       .  S
C868        C871   1.492       .  S
C868        C869   1.408       .  A
C869        C870   1.401       .  A
C869        H881   1.081       .  S
C870        H882   1.083       .  S
C871        H883   1.084       .  S
C871        C872   1.349       .  D
C872        C873   1.493       .  S
C872        H884   1.084       .  S
C873        C874   1.401       .  A
C873        C878   1.410       .  A
C874        C875   1.397       .  A
C874        H885   1.084       .  S
C875        C876   1.410       .  A
C875        H886   1.083       .  S
C876        C877   1.408       .  A
C877        C878   1.402       .  A
C877        H887   1.078       .  S
C878        H888   1.080       .  S
C889        C890   1.405       .  A
C889        C894   1.405       .  A
C890        C891   1.397       .  A
C890        H903   1.083       .  S
C891        C892   1.403       .  A
C891        H904   1.083       .  S
C892        C895   1.484       .  S
C892        C893   1.408       .  A
C893        C894   1.398       .  A
C893        H905   1.081       .  S
C894        H906   1.083       .  S
C895        H907   1.085       .  S
C895        C896   1.347       .  D
C896        C897   1.484       .  S
C896        H908   1.084       .  S
C897        C898   1.407       .  A
C897        C902   1.404       .  A
C898        C899   1.396       .  A
C898        H909   1.081       .  S
C899        C900   1.405       .  A
C899        H910   1.083       .  S
C900        C901   1.404       .  A
C901        C902   1.398       .  A
C901        H911   1.083       .  S
C902        H912   1.083       .  S
C913        C914   1.402       .  A
C913        C918   1.406       .  A
C914        C915   1.398       .  A
C914        H927   1.078       .  S
C915        C916   1.404       .  A
C915        H928   1.083       .  S
C916        C919   1.489       .  S
C916        C917   1.408       .  A
C917        C918   1.396       .  A
C917        H929   1.079       .  S
C918        H930   1.083       .  S
C919        H931   1.085       .  S
C919        C920   1.348       .  D
C920        C921   1.484       .  S
C920        H932   1.083       .  S
C921        C922   1.401       .  A
C921        C926   1.406       .  A
C922        C923   1.396       .  A
C922        H933   1.084       .  S
C923        C924   1.409       .  A
C923        H934   1.081       .  S
C924        C925   1.406       .  A
C925        C926   1.398       .  A
C925        H935   1.077       .  S
C926        H936   1.081       .  S
C937        C938   1.407   1_565  A
C937        C942   1.404       .  A
C938        C939   1.398       .  A
C938        H951   1.082       .  S
C939        C940   1.403       .  A
C939        H952   1.083       .  S
C940        C943   1.490       .  S
C940        C941   1.408       .  A
C941        C942   1.398   1_545  A
C941        H953   1.081       .  S
C942        H954   1.077       .  S
C943        H955   1.083       .  S
C943        C944   1.349       .  D
C944        C945   1.491       .  S
C944        H956   1.084       .  S
C945        C946   1.404       .  A
C945        C950   1.410       .  A
C946        C947   1.397       .  A
C946        H957   1.084       .  S
C947        C948   1.401       .  A
C947        H958   1.076       .  S
C948        C949   1.406       .  A
C949        C950   1.401       .  A
C949        H959   1.083       .  S
C950        H960   1.080       .  S
C961        C962   1.409       .  A
C961        C966   1.411       .  A
C962        C963   1.398       .  A
C962        H975   1.083       .  S
C963        C964   1.403       .  A
C963        H976   1.083       .  S
C964        C967   1.492       .  S
C964        C965   1.407       .  A
C965        C966   1.400       .  A
C965        H977   1.081       .  S
C966        H978   1.076       .  S
C967        H979   1.083       .  S
C967        C968   1.350       .  D
C968        C969   1.493       .  S
C968        H980   1.084       .  S
C969        C970   1.404       .  A
C969        C974   1.407       .  A
C970        C971   1.399       .  A
C970        H981   1.084       .  S
C971        C972   1.410       .  A
C971        H982   1.077       .  S
C972        C973   1.410       .  A
C973        C974   1.399       .  A
C973        H983   1.083       .  S
C974        H984   1.080       .  S
C985        C986   1.405       .  A
C985        C990   1.404       .  A
C986        C987   1.398       .  A
C986        H999   1.083       .  S
C987        C988   1.403       .  A
C987       H1000   1.083       .  S
C988        C991   1.487       .  S
C988        C989   1.409       .  A
C989        C990   1.396       .  A
C989       H1001   1.081       .  S
C990       H1002   1.083       .  S
C991       H1003   1.084       .  S
C991        C992   1.347       .  D
C992        C993   1.485       .  S
C992       H1004   1.085       .  S
C993        C994   1.402       .  A
C993        C998   1.409       .  A
C994        C995   1.394       .  A
C994       H1005   1.084       .  S
C995        C996   1.404       .  A
C995       H1006   1.083       .  S
C996        C997   1.406       .  A
C997        C998   1.401       .  A
C997       H1007   1.083       .  S
C998       H1008   1.081       .  S
C1009      C1010   1.405       .  A
C1009      C1014   1.404       .  A
C1010      C1011   1.397       .  A
C1010      H1023   1.083       .  S
C1011      C1012   1.407       .  A
C1011      H1024   1.081       .  S
C1012      C1015   1.485       .  S
C1012      C1013   1.404       .  A
C1013      C1014   1.398       .  A
C1013      H1025   1.083       .  S
C1014      H1026   1.083       .  S
C1015      H1027   1.085       .  S
C1015      C1016   1.348       .  D
C1016      C1017   1.485       .  S
C1016      H1028   1.084       .  S
C1017      C1018   1.404       .  A
C1017      C1022   1.406       .  A
C1018      C1019   1.400       .  A
C1018      H1029   1.083       .  S
C1019      C1020   1.405       .  A
C1019      H1030   1.083       .  S
C1020      C1021   1.405       .  A
C1021      C1022   1.395       .  A
C1021      H1031   1.083       .  S
C1022      H1032   1.081       .  S
C1033      C1034   1.405       .  A
C1033      C1038   1.405       .  A
C1034      C1035   1.397       .  A
C1034      H1047   1.082       .  S
C1035      C1036   1.404       .  A
C1035      H1048   1.083       .  S
C1036      C1039   1.490       .  S
C1036      C1037   1.409       .  A
C1037      C1038   1.400       .  A
C1037      H1049   1.080       .  S
C1038      H1050   1.082       .  S
C1039      H1051   1.084       .  S
C1039      C1040   1.349       .  D
C1040      C1041   1.491       .  S
C1040      H1052   1.084       .  S
C1041      C1042   1.405       .  A
C1041      C1046   1.410       .  A
C1042      C1043   1.398       .  A
C1042      H1053   1.083       .  S
C1043      C1044   1.404       .  A
C1043      H1054   1.083       .  S
C1044      C1045   1.403       .  A
C1045      C1046   1.399       .  A
C1045      H1055   1.083       .  S
C1046      H1056   1.080       .  S
C1057      C1058   1.405       .  A
C1057      C1062   1.408       .  A
C1058      C1059   1.395       .  A
C1058      H1071   1.082       .  S
C1059      C1060   1.403       .  A
C1059      H1072   1.084       .  S
C1060      C1063   1.489       .  S
C1060      C1061   1.408       .  A
C1061      C1062   1.405       .  A
C1061      H1073   1.081       .  S
C1062      H1074   1.082       .  S
C1063      H1075   1.084       .  S
C1063      C1064   1.351       .  D
C1064      C1065   1.495       .  S
C1064      H1076   1.085       .  S
C1065      C1066   1.407       .  A
C1065      C1070   1.408       .  A
C1066      C1067   1.406       .  A
C1066      H1077   1.083       .  S
C1067      C1068   1.405       .  A
C1067      H1078   1.083       .  S
C1068      C1069   1.405       .  A
C1069      C1070   1.394       .  A
C1069      H1079   1.082       .  S
C1070      H1080   1.080       .  S
C1081      C1082   1.403       .  A
C1081      C1086   1.402       .  A
C1082      C1083   1.398       .  A
C1082      H1095   1.083       .  S
C1083      C1084   1.406       .  A
C1083      H1096   1.083       .  S
C1084      C1087   1.495       .  S
C1084      C1085   1.412       .  A
C1085      C1086   1.402       .  A
C1085      H1097   1.079       .  S
C1086      H1098   1.081       .  S
C1087      H1099   1.084       .  S
C1087      C1088   1.350       .  D
C1088      C1089   1.493       .  S
C1088      H1100   1.082       .  S
C1089      C1090   1.404       .  A
C1089      C1094   1.408       .  A
C1090      C1091   1.401       .  A
C1090      H1101   1.083       .  S
C1091      C1092   1.406       .  A
C1091      H1102   1.076       .  S
C1092      C1093   1.409       .  A
C1093      C1094   1.399       .  A
C1093      H1103   1.082       .  S
C1094      H1104   1.081       .  S
C1105      C1106   1.404       .  A
C1105      C1110   1.408       .  A
C1106      C1107   1.400       .  A
C1106      H1119   1.079       .  S
C1107      C1108   1.404       .  A
C1107      H1120   1.083       .  S
C1108      C1111   1.490       .  S
C1108      C1109   1.407       .  A
C1109      C1110   1.397       .  A
C1109      H1121   1.081       .  S
C1110      H1122   1.082       .  S
C1111      H1123   1.084       .  S
C1111      C1112   1.349       .  D
C1112      C1113   1.489       .  S
C1112      H1124   1.084       .  S
C1113      C1114   1.403       .  A
C1113      C1118   1.408       .  A
C1114      C1115   1.397       .  A
C1114      H1125   1.083       .  S
C1115      C1116   1.406       .  A
C1115      H1126   1.083       .  S
C1116      C1117   1.404       .  A
C1117      C1118   1.400       .  A
C1117      H1127   1.077       .  S
C1118      H1128   1.081       .  S
C1129      C1130   1.409   1_554  A
C1129      C1134   1.414       .  A
C1130      C1131   1.400       .  A
C1130      H1143   1.083       .  S
C1131      C1132   1.402       .  A
C1131      H1144   1.083       .  S
C1132      C1135   1.489       .  S
C1132      C1133   1.405   1_556  A
C1133      C1134   1.397       .  A
C1133      H1145   1.082       .  S
C1134      H1146   1.077       .  S
C1135      H1147   1.084       .  S
C1135      C1136   1.348   1_556  D
C1136      C1137   1.490       .  S
C1136      H1148   1.086       .  S
C1137      C1138   1.401       .  A
C1137      C1142   1.408   1_554  A
C1138      C1139   1.395       .  A
C1138      H1149   1.083       .  S
C1139      C1140   1.408       .  A
C1139      H1150   1.083       .  S
C1140      C1141   1.412   1_554  A
C1141      C1142   1.403       .  A
C1141      H1151   1.077       .  S
C1142      H1152   1.081       .  S
C1153      C1154   1.406       .  A
C1153      C1158   1.405       .  A
C1154      C1155   1.402   1_565  A
C1154      H1167   1.082       .  S
C1155      C1156   1.405       .  A
C1155      H1168   1.083       .  S
C1156      C1159   1.490       .  S
C1156      C1157   1.407       .  A
C1157      C1158   1.394   1_545  A
C1157      H1169   1.081       .  S
C1158      H1170   1.082       .  S
C1159      H1171   1.085       .  S
C1159      C1160   1.348       .  D
C1160      C1161   1.486       .  S
C1160      H1172   1.085       .  S
C1161      C1162   1.402       .  A
C1161      C1166   1.409       .  A
C1162      C1163   1.394       .  A
C1162      H1173   1.084       .  S
C1163      C1164   1.404       .  A
C1163      H1174   1.083       .  S
C1164      C1165   1.405       .  A
C1165      C1166   1.403       .  A
C1165      H1175   1.083       .  S
C1166      H1176   1.081       .  S
C1177      C1178   1.401       .  A
C1177      C1182   1.403       .  A
C1178      C1179   1.393       .  A
C1178      H1191   1.083       .  S
C1179      C1180   1.403       .  A
C1179      H1192   1.084       .  S
C1180      C1183   1.483       .  S
C1180      C1181   1.409       .  A
C1181      C1182   1.403       .  A
C1181      H1193   1.081       .  S
C1182      H1194   1.083       .  S
C1183      H1195   1.086       .  S
C1183      C1184   1.347       .  D
C1184      C1185   1.486   1_545  S
C1184      H1196   1.085       .  S
C1185      C1186   1.404       .  A
C1185      C1190   1.407       .  A
C1186      C1187   1.402       .  A
C1186      H1197   1.083       .  S
C1187      C1188   1.405       .  A
C1187      H1198   1.083       .  S
C1188      C1189   1.404       .  A
C1189      C1190   1.393       .  A
C1189      H1199   1.083       .  S
C1190      H1200   1.082       .  S
C1201      C1202   1.403       .  A
C1201      C1206   1.405       .  A
C1202      C1203   1.397       .  A
C1202      H1215   1.076       .  S
C1203      C1204   1.402       .  A
C1203      H1216   1.083       .  S
C1204      C1207   1.486       .  S
C1204      C1205   1.408       .  A
C1205      C1206   1.398       .  A
C1205      H1217   1.081       .  S
C1206      H1218   1.083       .  S
C1207      H1219   1.084       .  S
C1207      C1208   1.347       .  D
C1208      C1209   1.485       .  S
C1208      H1220   1.085       .  S
C1209      C1210   1.401       .  A
C1209      C1214   1.409       .  A
C1210      C1211   1.394       .  A
C1210      H1221   1.084       .  S
C1211      C1212   1.406       .  A
C1211      H1222   1.082       .  S
C1212      C1213   1.404       .  A
C1213      C1214   1.401       .  A
C1213      H1223   1.079       .  S
C1214      H1224   1.081       .  S
C1225      C1226   1.410       .  A
C1225      C1230   1.410       .  A
C1226      C1227   1.397       .  A
C1226      H1239   1.076       .  S
C1227      C1228   1.400       .  A
C1227      H1240   1.084       .  S
C1228      C1231   1.487       .  S
C1228      C1229   1.406       .  A
C1229      C1230   1.398       .  A
C1229      H1241   1.081       .  S
C1230      H1242   1.080       .  S
C1231      H1243   1.083       .  S
C1231      C1232   1.348       .  D
C1232      C1233   1.491       .  S
C1232      H1244   1.085       .  S
C1233      C1234   1.405       .  A
C1233      C1238   1.410       .  A
C1234      C1235   1.397       .  A
C1234      H1245   1.083       .  S
C1235      C1236   1.404       .  A
C1235      H1246   1.083       .  S
C1236      C1237   1.401       .  A
C1237      C1238   1.399       .  A
C1237      H1247   1.079       .  S
C1238      H1248   1.079       .  S
C1249      C1250   1.411       .  A
C1249      C1254   1.410   1_556  A
C1250      C1251   1.399       .  A
C1250      H1263   1.077       .  S
C1251      C1252   1.401       .  A
C1251      H1264   1.084       .  S
C1252      C1255   1.489       .  S
C1252      C1253   1.406   1_556  A
C1253      C1254   1.399       .  A
C1253      H1265   1.082       .  S
C1254      H1266   1.083       .  S
C1255      H1267   1.084       .  S
C1255      C1256   1.348   1_556  D
C1256      C1257   1.491   1_554  S
C1256      H1268   1.085       .  S
C1257      C1258   1.401   1_556  A
C1257      C1262   1.409       .  A
C1258      C1259   1.396       .  A
C1258      H1269   1.083       .  S
C1259      C1260   1.409   1_554  A
C1259      H1270   1.083       .  S
C1260      C1261   1.410       .  A
C1261      C1262   1.402       .  A
C1261      H1271   1.077       .  S
C1262      H1272   1.080       .  S
C1273      C1274   1.406       .  A
C1273      C1278   1.405   1_556  A
C1274      C1275   1.398       .  A
C1274      H1287   1.083       .  S
C1275      C1276   1.403       .  A
C1275      H1288   1.083       .  S
C1276      C1279   1.488       .  S
C1276      C1277   1.408   1_556  A
C1277      C1278   1.399       .  A
C1277      H1289   1.081       .  S
C1278      H1290   1.083       .  S
C1279      H1291   1.083       .  S
C1279      C1280   1.349   1_556  D
C1280      C1281   1.490       .  S
C1280      H1292   1.085       .  S
C1281      C1282   1.404       .  A
C1281      C1286   1.410   1_554  A
C1282      C1283   1.397       .  A
C1282      H1293   1.083       .  S
C1283      C1284   1.404       .  A
C1283      H1294   1.083       .  S
C1284      C1285   1.405   1_554  A
C1285      C1286   1.401       .  A
C1285      H1295   1.083       .  S
C1286      H1296   1.080       .  S
C1297      C1298   1.407       .  A
C1297      C1302   1.407       .  A
C1298      C1299   1.394       .  A
C1298      H1311   1.081       .  S
C1299      C1300   1.403       .  A
C1299      H1312   1.084       .  S
C1300      C1303   1.493       .  S
C1300      C1301   1.410       .  A
C1301      C1302   1.404       .  A
C1301      H1313   1.080       .  S
C1302      H1314   1.080       .  S
C1303      H1315   1.084       .  S
C1303      C1304   1.350       .  D
C1304      C1305   1.493       .  S
C1304      H1316   1.083       .  S
C1305      C1306   1.405       .  A
C1305      C1310   1.410       .  A
C1306      C1307   1.401       .  A
C1306      H1317   1.083       .  S
C1307      C1308   1.403       .  A
C1307      H1318   1.078       .  S
C1308      C1309   1.403       .  A
C1309      C1310   1.398       .  A
C1309      H1319   1.083       .  S
C1310      H1320   1.081       .  S
C1321      C1322   1.405       .  A
C1321      C1326   1.402       .  A
C1322      C1323   1.394       .  A
C1322      H1335   1.083       .  S
C1323      C1324   1.402       .  A
C1323      H1336   1.084       .  S
C1324      C1327   1.488       .  S
C1324      C1325   1.411       .  A
C1325      C1326   1.401       .  A
C1325      H1337   1.080       .  S
C1326      H1338   1.080       .  S
C1327      H1339   1.086       .  S
C1327      C1328   1.346       .  D
C1328      C1329   1.484       .  S
C1328      H1340   1.083       .  S
C1329      C1330   1.399       .  A
C1329      C1334   1.406       .  A
C1330      C1331   1.397       .  A
C1330      H1341   1.084       .  S
C1331      C1332   1.409       .  A
C1331      H1342   1.075       .  S
C1332      C1333   1.410       .  A
C1333      C1334   1.398       .  A
C1333      H1343   1.080       .  S
C1334      H1344   1.082       .  S
C1345      C1346   1.403       .  A
C1345      C1350   1.403       .  A
C1346      C1347   1.394       .  A
C1346      H1359   1.083       .  S
C1347      C1348   1.403       .  A
C1347      H1360   1.084       .  S
C1348      C1351   1.486       .  S
C1348      C1349   1.410       .  A
C1349      C1350   1.403       .  A
C1349      H1361   1.081       .  S
C1350      H1362   1.083       .  S
C1351      H1363   1.085       .  S
C1351      C1352   1.348       .  D
C1352      C1353   1.489       .  S
C1352      H1364   1.085       .  S
C1353      C1354   1.404   1_545  A
C1353      C1358   1.408   1_545  A
C1354      C1355   1.401       .  A
C1354      H1365   1.083   1_565  S
C1355      C1356   1.405       .  A
C1355      H1366   1.083       .  S
C1356      C1357   1.404       .  A
C1357      C1358   1.395       .  A
C1357      H1367   1.083       .  S
C1358      H1368   1.082   1_565  S
C1369      C1370   1.406       .  A
C1369      C1374   1.404       .  A
C1370      C1371   1.404       .  A
C1370      H1383   1.082       .  S
C1371      C1372   1.406   1_565  A
C1371      H1384   1.083       .  S
C1372      C1375   1.494       .  S
C1372      C1373   1.408   1_545  A
C1373      C1374   1.394       .  A
C1373      H1385   1.081   1_565  S
C1374      H1386   1.082       .  S
C1375      H1387   1.085       .  S
C1375      C1376   1.349       .  D
C1376      C1377   1.489       .  S
C1376      H1388   1.084       .  S
C1377      C1378   1.401       .  A
C1377      C1382   1.409       .  A
C1378      C1379   1.392       .  A
C1378      H1389   1.084       .  S
C1379      C1380   1.407       .  A
C1379      H1390   1.082       .  S
C1380      C1381   1.408       .  A
C1381      C1382   1.407       .  A
C1381      H1391   1.082       .  S
C1382      H1392   1.081       .  S
C1393      C1394   1.410   1_554  A
C1393      C1398   1.411       .  A
C1394      C1395   1.397       .  A
C1394      H1407   1.083       .  S
C1395      C1396   1.401   1_556  A
C1395      H1408   1.084       .  S
C1396      C1399   1.489   1_554  S
C1396      C1397   1.407       .  A
C1397      C1398   1.401       .  A
C1397      H1409   1.081       .  S
C1398      H1410   1.077       .  S
C1399      H1411   1.085       .  S
C1399      C1400   1.349   1_556  D
C1400      C1401   1.488       .  S
C1400      H1412   1.085       .  S
C1401      C1402   1.401       .  A
C1401      C1406   1.406   1_554  A
C1402      C1403   1.399       .  A
C1402      H1413   1.084       .  S
C1403      C1404   1.411       .  A
C1403      H1414   1.077       .  S
C1404      C1405   1.410   1_554  A
C1405      C1406   1.399       .  A
C1405      H1415   1.083       .  S
C1406      H1416   1.082       .  S
C1417      C1418   1.404       .  A
C1417      C1422   1.405   1_554  A
C1418      C1419   1.399       .  A
C1418      H1431   1.083       .  S
C1419      C1420   1.406       .  A
C1419      H1432   1.083       .  S
C1420      C1423   1.496       .  S
C1420      C1421   1.411   1_554  A
C1421      C1422   1.400       .  A
C1421      H1433   1.079       .  S
C1422      H1434   1.083       .  S
C1423      H1435   1.083       .  S
C1423      C1424   1.351   1_554  D
C1424      C1425   1.494       .  S
C1424      H1436   1.082       .  S
C1425      C1426   1.405       .  A
C1425      C1430   1.410   1_556  A
C1426      C1427   1.399       .  A
C1426      H1437   1.083       .  S
C1427      C1428   1.405       .  A
C1427      H1438   1.083       .  S
C1428      C1429   1.405   1_556  A
C1429      C1430   1.400       .  A
C1429      H1439   1.083       .  S
C1430      H1440   1.080       .  S
C1441      C1442   1.404       .  A
C1441      C1446   1.405       .  A
C1442      C1443   1.394       .  A
C1442      H1455   1.083       .  S
C1443      C1444   1.403       .  A
C1443      H1456   1.084       .  S
C1444      C1447   1.491       .  S
C1444      C1445   1.411       .  A
C1445      C1446   1.406       .  A
C1445      H1457   1.081       .  S
C1446      H1458   1.083       .  S
C1447      H1459   1.085       .  S
C1447      C1448   1.350       .  D
C1448      C1449   1.494       .  S
C1448      H1460   1.084       .  S
C1449      C1450   1.406       .  A
C1449      C1454   1.408       .  A
C1450      C1451   1.404       .  A
C1450      H1461   1.083       .  S
C1451      C1452   1.406       .  A
C1451      H1462   1.082       .  S
C1452      C1453   1.405       .  A
C1453      C1454   1.395       .  A
C1453      H1463   1.082       .  S
C1454      H1464   1.081       .  S
C1465      C1466   1.406       .  A
C1465      C1470   1.406       .  A
C1466      C1467   1.399       .  A
C1466      H1479   1.082       .  S
C1467      C1468   1.405       .  A
C1467      H1480   1.083       .  S
C1468      C1471   1.493       .  S
C1468      C1469   1.409       .  A
C1469      C1470   1.400       .  A
C1469      H1481   1.080       .  S
C1470      H1482   1.082       .  S
C1471      H1483   1.084       .  S
C1471      C1472   1.350       .  D
C1472      C1473   1.492       .  S
C1472      H1484   1.084       .  S
C1473      C1474   1.405       .  A
C1473      C1478   1.409       .  A
C1474      C1475   1.399       .  A
C1474      H1485   1.083       .  S
C1475      C1476   1.405       .  A
C1475      H1486   1.082       .  S
C1476      C1477   1.406       .  A
C1477      C1478   1.400       .  A
C1477      H1487   1.082       .  S
C1478      H1488   1.080       .  S
C1489      C1490   1.407       .  A
C1489      C1494   1.405       .  A
C1490      C1491   1.397       .  A
C1490      H1503   1.082       .  S
C1491      C1492   1.403       .  A
C1491      H1504   1.083       .  S
C1492      C1495   1.489       .  S
C1492      C1493   1.408       .  A
C1493      C1494   1.401       .  A
C1493      H1505   1.081       .  S
C1494      H1506   1.079       .  S
C1495      H1507   1.084       .  S
C1495      C1496   1.349       .  D
C1496      C1497   1.492       .  S
C1496      H1508   1.085       .  S
C1497      C1498   1.402       .  A
C1497      C1502   1.408       .  A
C1498      C1499   1.399       .  A
C1498      H1509   1.083       .  S
C1499      C1500   1.407       .  A
C1499      H1510   1.076       .  S
C1500      C1501   1.409       .  A
C1501      C1502   1.399       .  A
C1501      H1511   1.081       .  S
C1502      H1512   1.081       .  S
C1513      C1514   1.402       .  A
C1513      C1518   1.404       .  A
C1514      C1515   1.399       .  A
C1514      H1527   1.077       .  S
C1515      C1516   1.405       .  A
C1515      H1528   1.083       .  S
C1516      C1519   1.494       .  S
C1516      C1517   1.411       .  A
C1517      C1518   1.399       .  A
C1517      H1529   1.079       .  S
C1518      H1530   1.083       .  S
C1519      H1531   1.084       .  S
C1519      C1520   1.349       .  D
C1520      C1521   1.490       .  S
C1520      H1532   1.083       .  S
C1521      C1522   1.403       .  A
C1521      C1526   1.409       .  A
C1522      C1523   1.397       .  A
C1522      H1533   1.083       .  S
C1523      C1524   1.406       .  A
C1523      H1534   1.082       .  S
C1524      C1525   1.405       .  A
C1525      C1526   1.402       .  A
C1525      H1535   1.080       .  S
C1526      H1536   1.081       .  S
C1537      C1538   1.410       .  A
C1537      C1542   1.414   1_554  A
C1538      C1539   1.404       .  A
C1538      H1551   1.083       .  S
C1539      C1540   1.404       .  A
C1539      H1552   1.083       .  S
C1540      C1543   1.494       .  S
C1540      C1541   1.405   1_554  A
C1541      C1542   1.397       .  A
C1541      H1553   1.082       .  S
C1542      H1554   1.075       .  S
C1543      H1555   1.085       .  S
C1543      C1544   1.350   1_554  D
C1544      C1545   1.492       .  S
C1544      H1556   1.086       .  S
C1545      C1546   1.402       .  A
C1545      C1550   1.408   1_556  A
C1546      C1547   1.396       .  A
C1546      H1557   1.083       .  S
C1547      C1548   1.409       .  A
C1547      H1558   1.083       .  S
C1548      C1549   1.412   1_556  A
C1549      C1550   1.405       .  A
C1549      H1559   1.078       .  S
C1550      H1560   1.081       .  S
C1561      C1562   1.405       .  A
C1561      C1566   1.404   1_556  A
C1562      C1563   1.398       .  A
C1562      H1575   1.083       .  S
C1563      C1564   1.403       .  A
C1563      H1576   1.083       .  S
C1564      C1567   1.481       .  S
C1564      C1565   1.406   1_556  A
C1565      C1566   1.395       .  A
C1565      H1577   1.082       .  S
C1566      H1578   1.083       .  S
C1567      H1579   1.083       .  S
C1567      C1568   1.347   1_556  D
C1568      C1569   1.484       .  S
C1568      H1580   1.086       .  S
C1569      C1570   1.407   1_554  A
C1569      C1574   1.404       .  A
C1570      C1571   1.396       .  A
C1570      H1581   1.080       .  S
C1571      C1572   1.404   1_556  A
C1571      H1582   1.083       .  S
C1572      C1573   1.404       .  A
C1573      C1574   1.397       .  A
C1573      H1583   1.083       .  S
C1574      H1584   1.083       .  S
C1585      C1586   1.405       .  A
C1585      C1590   1.405   1_554  A
C1586      C1587   1.398       .  A
C1586      H1599   1.083       .  S
C1587      C1588   1.403       .  A
C1587      H1600   1.083       .  S
C1588      C1591   1.484       .  S
C1588      C1589   1.407   1_554  A
C1589      C1590   1.397       .  A
C1589      H1601   1.082       .  S
C1590      H1602   1.083       .  S
C1591      H1603   1.084       .  S
C1591      C1592   1.347   1_554  D
C1592      C1593   1.486       .  S
C1592      H1604   1.086       .  S
C1593      C1594   1.403       .  A
C1593      C1598   1.409   1_556  A
C1594      C1595   1.396       .  A
C1594      H1605   1.083       .  S
C1595      C1596   1.405   1_556  A
C1595      H1606   1.083       .  S
C1596      C1597   1.404       .  A
C1597      C1598   1.398       .  A
C1597      H1607   1.083       .  S
C1598      H1608   1.080       .  S
