geometry optimzed in LAMMPS
_audit_creation_date              2020-12-01 
_audit_creation_method            'lammps2cif' 
_symmetry_space_group_name_H-M    'P1' 
_symmetry_Int_Tables_number       1 
_symmetry_cell_setting            triclinic 
loop_ 
_symmetry_equiv_pos_as_xyz 
  x,y,z 
_cell_length_a                    31.1162157 
_cell_length_b                    31.27449205218976 
_cell_length_c                    31.42247333885238 
_cell_angle_alpha                 89.76192660463583 
_cell_angle_beta                  89.82965801668473 
_cell_angle_gamma                 90.46063095765486 
loop_ 
_atom_site_label 
_atom_site_type_symbol 
_atom_site_fract_x 
_atom_site_fract_y 
_atom_site_fract_z 
_atom_site_charge 
O1          O  0.55708386  0.73518708  0.07893472    -0.71500
O2          O  0.46869447  0.63945989  0.08678486    -0.72500
O3          O  0.56043092  0.64468545  0.08808248    -0.61100
O4          O  0.46388147  0.72885128  0.07883922    -0.69500
O5          O  0.46556923  0.72564822  0.00830721    -0.69100
O6          O  0.55854392  0.63719001  0.01794507    -0.60300
O7          O  0.46760299  0.63599679  0.01627916    -0.72800
O8          O  0.55926728  0.72638551  0.00890211    -0.71600
Cu9        Cu  0.51256966  0.68756304  0.08565594     1.04600
Cu10       Cu  0.51287357  0.68137910  0.01046229     1.04300
C11         C  0.57362737  0.74407857  0.04257363     0.94700
C12         C  0.45388905  0.62313659  0.05250629     0.93800
C13         C  0.57415565  0.62699671  0.05419300     0.86000
C14         C  0.44797169  0.73869940  0.04269718     0.92300
C15         C  0.81624022  0.65754523  0.98231533     0.87900
C16         C  0.85160497  0.64918569  0.94981348    -0.52300
C17         C  0.88046511  0.68166190  0.94522717     0.10900
C18         C  0.87176647  0.71990531  0.97479217     0.21800
C19         C  0.83998149  0.66810844  0.02372653    -0.53000
C20         C  0.87007184  0.70017167  0.01978953     0.11000
C21         C  0.79627108  0.69977573  0.96742587    -0.52500
C22         C  0.82495366  0.73318570  0.96481256     0.11500
H23         H  0.85335926  0.61987606  0.93141709     0.16100
H24         H  0.89570958  0.74624064  0.97149712     0.01800
H25         H  0.83622196  0.64857456  0.05212661     0.16400
H26         H  0.76462824  0.70054345  0.95315248     0.16200
C27         C  0.68100639  0.79768923  0.00797938     0.87900
C28         C  0.69500017  0.82633492  0.04475539    -0.52300
C29         C  0.72341507  0.85811259  0.03338858     0.10900
C30         C  0.73662573  0.85644071  0.98593448     0.21800
C31         C  0.66488315  0.82844873  0.97351732    -0.53000
C32         C  0.69417146  0.85864574  0.96124662     0.11000
C33         C  0.72316517  0.77976486  0.98962447    -0.52500
C34         C  0.75260051  0.81046055  0.97756843     0.11500
H35         H  0.67997340  0.82403967  0.07587875     0.16100
H36         H  0.76004731  0.88188772  0.97689205     0.01800
H37         H  0.63332568  0.82561621  0.95901958     0.16400
H38         H  0.72635711  0.74616866  0.98305484     0.16200
O39         O  0.75101871  0.52920867  0.96989073    -0.71500
O40         O  0.66456451  0.43397291  0.98722314    -0.72500
O41         O  0.66237236  0.52422624  0.98444824    -0.61100
O42         O  0.75330670  0.43677428  0.97057826    -0.69500
O43         O  0.76440058  0.43582744  0.04032349    -0.69100
O44         O  0.67475560  0.52879470  0.05384836    -0.60300
O45         O  0.67487086  0.43756704  0.05699290    -0.72800
O46         O  0.76497679  0.52791357  0.03918859    -0.71600
Cu47       Cu  0.70764179  0.48104032  0.97564522     1.04600
Cu48       Cu  0.72040657  0.48264009  0.05007339     1.04300
C49         C  0.77068355  0.54419879  0.00232653     0.94700
C50         C  0.65589927  0.42107763  0.02503186     0.93800
C51         C  0.65419177  0.54057302  0.02057369     0.86000
C52         C  0.77146708  0.42062407  0.00313756     0.92300
C53         C  0.66724487  0.14030201  0.99062872     0.87900
C54         C  0.67721183  0.12078799  0.94753268    -0.52300
C55         C  0.71510902  0.09970752  0.94568364     0.10900
C56         C  0.74064189  0.10025388  0.98795925     0.21800
C57         C  0.67016027  0.10325556  0.02234596    -0.53000
C58         C  0.70883725  0.08232627  0.02190026     0.11000
C59         C  0.70598857  0.16893545  0.00012473    -0.52500
C60         C  0.74484775  0.14848260  0.99894504     0.11500
H61         H  0.65559380  0.12283096  0.92047831     0.16100
H62         H  0.77177176  0.08320533  0.98649035     0.01800
H63         H  0.64355588  0.09439033  0.04309100     0.16400
H64         H  0.70269333  0.20306680  0.00524197     0.16200
C65         C  0.83903274  0.31924388  0.02430846     0.87900
C66         C  0.86811565  0.30749073  0.06145708    -0.52300
C67         C  0.88400818  0.26708981  0.05963610     0.10900
C68         C  0.86877248  0.24116783  0.02066210     0.21800
C69         C  0.86605933  0.31037617  0.98442957    -0.53000
C70         C  0.88174433  0.26943249  0.98208310     0.11000
C71         C  0.80409435  0.28471002  0.02471460    -0.52500
C72         C  0.81902928  0.24380564  0.02296332     0.11500
H73         H  0.87584876  0.32940434  0.08713997     0.16100
H74         H  0.88145489  0.20809467  0.01968642     0.01800
H75         H  0.87362207  0.33516296  0.96125518     0.16400
H76         H  0.77011136  0.29205492  0.02748540     0.16200
O77         O  0.46634805  0.23101406  0.05558220    -0.71500
O78         O  0.55969530  0.32124479  0.04394248    -0.72500
O79         O  0.46851068  0.32118202  0.04597171    -0.61100
O80         O  0.55878916  0.23103154  0.05503150    -0.69500
O81         O  0.55772633  0.22305953  0.98488143    -0.69100
O82         O  0.46750317  0.31324021  0.97578042    -0.60300
O83         O  0.55813096  0.31273972  0.97385249    -0.72800
O84         O  0.46640678  0.22328329  0.98542147    -0.71600
Cu85       Cu  0.51340033  0.27621211  0.05267273     1.04600
Cu86       Cu  0.51243675  0.26766082  0.97762291     1.04300
C87         C  0.45098968  0.21374791  0.02197893     0.94700
C88         C  0.57313879  0.33140290  0.00666032     0.93800
C89         C  0.45391922  0.33152648  0.00945504     0.86000
C90         C  0.57319975  0.21352461  0.02134153     0.92300
C91         C  0.17779398  0.32088631  0.99031684     0.87900
C92         C  0.15073410  0.31709527  0.95007779    -0.52300
C93         C  0.12799099  0.27994241  0.94704675     0.10900
C94         C  0.13506280  0.24873195  0.98438731     0.21800
C95         C  0.14610606  0.31291965  0.02712329    -0.53000
C96         C  0.12423327  0.27465252  0.02457410     0.11000
C97         C  0.20635539  0.28137695  0.98969022    -0.52500
C98         C  0.18422644  0.24335291  0.98653924     0.11500
H99         H  0.14878601  0.34229683  0.92624110     0.16100
H100        H  0.11696086  0.21811007  0.98167369     0.01800
H101        H  0.14138693  0.33564793  0.05269551     0.16400
H102        H  0.24120666  0.28354237  0.99039182     0.16200
C103        C  0.35198657  0.14632757  0.98991160     0.87900
C104        C  0.34171334  0.11185810  0.02333654    -0.52300
C105        C  0.30013288  0.09684467  0.02175577     0.10900
C106        C  0.27279530  0.11745120  0.98662988     0.21800
C107        C  0.34004873  0.12589024  0.94729691    -0.53000
C108        C  0.29904513  0.11007968  0.94563979     0.11000
C109        C  0.31826082  0.18056282  0.99691671    -0.52500
C110        C  0.27695477  0.16599851  0.99554377     0.11500
H111        H  0.36518633  0.10024477  0.04604839     0.16100
H112        H  0.23921694  0.10520826  0.98544730     0.01800
H113        H  0.36283499  0.12215060  0.92132321     0.16400
H114        H  0.32645138  0.21375690  0.00345310     0.16200
C115        C  0.17080326  0.62774830  0.01525627     0.87900
C116        C  0.13252117  0.63608366  0.04449869    -0.52300
C117        C  0.10894424  0.67124571  0.03347287     0.10900
C118        C  0.12740332  0.69596421  0.99468935     0.21800
C119        C  0.15144544  0.62614586  0.97045240    -0.53000
C120        C  0.12857527  0.66147956  0.95935983     0.11000
C121        C  0.19741685  0.66898049  0.01629922    -0.52500
C122        C  0.17522250  0.70512264  0.00580147     0.11500
H123        H  0.12414119  0.61522374  0.07102769     0.16100
H124        H  0.10917263  0.72514220  0.98644116     0.01800
H125        H  0.15430361  0.59855345  0.94975725     0.16400
H126        H  0.23155867  0.66912001  0.02341360     0.16200
C127        C  0.34435374  0.79942353  0.00879409     0.87900
C128        C  0.33272293  0.82584438  0.96942065    -0.52300
C129        C  0.29364799  0.84608269  0.97185654     0.10900
C130        C  0.26851016  0.83527085  0.01321491     0.21800
C131        C  0.33931515  0.83034566  0.04599313    -0.53000
C132        C  0.30001191  0.84886131  0.04879269     0.11000
C133        C  0.30729129  0.76749268  0.01393969    -0.52500
C134        C  0.26746004  0.78554239  0.01598483     0.11500
H135        H  0.35461446  0.82947654  0.94266623     0.16100
H136        H  0.23650722  0.85054229  0.01566357     0.01800
H137        H  0.36491678  0.83731919  0.06843992     0.16400
H138        H  0.31229020  0.73328529  0.01727838     0.16200
O139        O  0.26218711  0.52476725  0.04800103    -0.71500
O140        O  0.35422408  0.43576038  0.06620674    -0.72500
O141        O  0.35329961  0.52634899  0.05650386    -0.61100
O142        O  0.26351779  0.43291254  0.05906541    -0.69500
O143        O  0.26831784  0.42711819  0.98885230    -0.69100
O144        O  0.36097869  0.51768108  0.98682540    -0.60300
O145        O  0.35860374  0.42774416  0.99618838    -0.72800
O146        O  0.27141808  0.51794484  0.97824966    -0.71600
Cu147      Cu  0.30787098  0.48023076  0.05998166     1.04600
Cu148      Cu  0.31485284  0.47231806  0.98519034     1.04300
C149        C  0.25395288  0.53650658  0.00979854     0.94700
C150        C  0.37067859  0.41767113  0.03364584     0.93800
C151        C  0.37156270  0.53643585  0.02133415     0.86000
C152        C  0.25249884  0.41460702  0.02447566     0.92300
O153        O  0.44797279  0.99808373  0.74520281    -0.71500
O154        O  0.54337085  0.01479688  0.65959087    -0.72500
O155        O  0.45188060  0.01348964  0.65657242    -0.61100
O156        O  0.54017225  0.99916494  0.74881211    -0.69500
O157        O  0.54060216  0.92941255  0.73592613    -0.69100
O158        O  0.45231483  0.94352285  0.64484349    -0.60300
O159        O  0.54389302  0.94498466  0.64731819    -0.72800
O160        O  0.44867400  0.92826541  0.73282355    -0.71600
Cu161      Cu  0.49585019  0.00884026  0.70308669     1.04600
Cu162      Cu  0.49644777  0.93412982  0.68996731     1.04300
C163        C  0.43241839  0.96059349  0.75142686     0.94700
C164        C  0.55861919  0.98259641  0.63989514     0.93800
C165        C  0.43776200  0.98071518  0.63672033     0.86000
C166        C  0.55515440  0.96187423  0.75591548     0.92300
C167        C  0.84070897  0.95576568  0.65018114     0.87900
C168        C  0.86657754  0.99751080  0.65032725    -0.52300
C169        C  0.88660198  0.00641052  0.68774363     0.10900
C170        C  0.87869322  0.97218428  0.72272081     0.21800
C171        C  0.87275625  0.92151047  0.66382133    -0.53000
C172        C  0.89255231  0.93001656  0.70191745     0.11000
C173        C  0.80991022  0.95901681  0.68793634    -0.52500
C174        C  0.82915184  0.96762724  0.72632347     0.11500
H175        H  0.86939271  0.01822361  0.62257005     0.16100
H176        H  0.89492430  0.97902719  0.75340186     0.01800
H177        H  0.87964067  0.89336392  0.64492181     0.16400
H178        H  0.77581327  0.95254882  0.68426745     0.16200
C179        C  0.65529907  0.98169712  0.82457880     0.87900
C180        C  0.66215589  0.94097998  0.85063501    -0.52300
C181        C  0.70333510  0.93589924  0.86500225     0.10900
C182        C  0.73469094  0.97141703  0.84952384     0.21800
C183        C  0.67205577  0.01785079  0.85318816    -0.53000
C184        C  0.71358336  0.01208376  0.86693823     0.11000
C185        C  0.68748266  0.97958733  0.78837846    -0.52500
C186        C  0.72912187  0.97493982  0.80041449     0.11500
H187        H  0.63578823  0.91945034  0.85848299     0.16100
H188        H  0.76835475  0.96725592  0.86031138     0.01800
H189        H  0.65169896  0.04343057  0.86464144     0.16400
H190        H  0.67790640  0.98324585  0.75529811     0.16200
O191        O  0.74727189  0.00976612  0.54111837    -0.71500
O192        O  0.65577501  0.00957405  0.45298829    -0.72500
O193        O  0.65702559  0.00145099  0.54295204    -0.61100
O194        O  0.74600308  0.01685685  0.44962274    -0.69500
O195        O  0.75158228  0.94639812  0.44506754    -0.69100
O196        O  0.66350572  0.93103483  0.53811056    -0.60300
O197        O  0.66037212  0.93900524  0.44767264    -0.72800
O198        O  0.75478013  0.93937621  0.53719894    -0.71600
Cu199      Cu  0.70159315  0.01175214  0.49689230     1.04600
Cu200      Cu  0.70798475  0.93641399  0.49178410     1.04300
C201        C  0.76425269  0.97526228  0.55445736     0.94700
C202        C  0.64337975  0.97450698  0.43643703     0.93800
C203        C  0.64611608  0.96372834  0.55497605     0.86000
C204        C  0.76151295  0.98383172  0.43145734     0.92300
C205        C  0.16312927  0.97245129  0.66025343     0.87900
C206        C  0.12894646  0.93757099  0.66527342    -0.52300
C207        C  0.11192553  0.93367819  0.70518978     0.10900
C208        C  0.13249671  0.96457411  0.73764531     0.21800
C209        C  0.14154764  0.01311020  0.67688537    -0.53000
C210        C  0.12475721  0.00911629  0.71738562     0.11000
C211        C  0.19698444  0.96119205  0.69323726    -0.52500
C212        C  0.18171474  0.95678415  0.73381263     0.11500
H213        H  0.11935204  0.91728607  0.63895876     0.16100
H214        H  0.11944010  0.96096932  0.77040692     0.01800
H215        H  0.13606855  0.04076652  0.65666890     0.16400
H216        H  0.23045856  0.95596809  0.68487933     0.16200
C217        C  0.33635386  0.97811751  0.82819711     0.87900
C218        C  0.32377599  0.01682315  0.85483739    -0.52300
C219        C  0.28823789  0.01055430  0.88009127     0.10900
C220        C  0.26815868  0.96527893  0.87569988     0.21800
C221        C  0.34127775  0.94205416  0.86040303    -0.53000
C222        C  0.30616030  0.93472092  0.88550756     0.11000
C223        C  0.29610582  0.96705251  0.80287408    -0.52500
C224        C  0.25973489  0.96080772  0.82705253     0.11500
H225        H  0.34338782  0.04566841  0.85564412     0.16100
H226        H  0.23939569  0.96001058  0.89610884     0.01800
H227        H  0.37109732  0.92454510  0.86407279     0.16400
H228        H  0.29604057  0.96779708  0.76831845     0.16200
O229        O  0.25305549  0.01517454  0.45129699    -0.71500
O230        O  0.34313647  0.99648771  0.53952992    -0.72500
O231        O  0.33993566  0.98929060  0.45009761    -0.61100
O232        O  0.25669143  0.02140682  0.54304012    -0.69500
O233        O  0.23652613  0.95332346  0.54740993    -0.69100
O234        O  0.32011582  0.92116581  0.45531835    -0.60300
O235        O  0.32395826  0.92818882  0.54527920    -0.72800
O236        O  0.23287986  0.94708670  0.45606495    -0.71600
Cu237      Cu  0.29860906  0.00796465  0.49571585     1.04600
Cu238      Cu  0.27735553  0.93510708  0.50123909     1.04300
C239        C  0.23004380  0.98390171  0.43837299     0.94700
C240        C  0.34801338  0.95958974  0.55621041     0.93800
C241        C  0.34375972  0.95026786  0.43860561     0.86000
C242        C  0.23478362  0.99173933  0.56115580     0.92300
C243        C  0.33985139  0.98394942  0.16678245     0.87900
C244        C  0.33371771  0.94910833  0.13308449    -0.52300
C245        C  0.29560551  0.95166428  0.11132815     0.10900
C246        C  0.26765049  0.98985190  0.12467622     0.21800
C247        C  0.33483911  0.02598354  0.14283007    -0.53000
C248        C  0.29774511  0.02923425  0.12041054     0.11000
C249        C  0.29985050  0.98071091  0.19493269    -0.52500
C250        C  0.26169314  0.98336529  0.17323159     0.11500
H251        H  0.35746458  0.92458821  0.12702868     0.16100
H252        H  0.23708884  0.99249914  0.10671703     0.01800
H253        H  0.35950427  0.05080773  0.14228683     0.16400
H254        H  0.30183047  0.97736332  0.22928400     0.16200
C255        C  0.16159598  0.96122785  0.33882890     0.87900
C256        C  0.13431147  0.00025490  0.32808525    -0.52300
C257        C  0.11926467  0.00088276  0.28702272     0.10900
C258        C  0.13392992  0.96244073  0.26023602     0.21800
C259        C  0.13303946  0.92309715  0.32739871    -0.53000
C260        C  0.11837012  0.92348274  0.28627625     0.11000
C261        C  0.19739048  0.96089581  0.30567211    -0.52500
C262        C  0.18349496  0.96149693  0.26458876     0.11500
H263        H  0.12497701  0.02349201  0.35191789     0.16100
H264        H  0.12211586  0.96275923  0.22691168     0.01800
H265        H  0.12342282  0.89931611  0.35088323     0.16400
H266        H  0.23119065  0.95888985  0.31406411     0.16200
C267        C  0.65915714  0.96728071  0.17533263     0.87900
C268        C  0.65889195  0.00305207  0.14215546    -0.52300
C269        C  0.69630890  0.00813436  0.11986538     0.10900
C270        C  0.73157441  0.97577885  0.13288995     0.21800
C271        C  0.67194657  0.92713711  0.15072558    -0.53000
C272        C  0.70951300  0.93136985  0.12827914     0.11000
C273        C  0.69788480  0.97753796  0.20323381    -0.52500
C274        C  0.73588658  0.98176669  0.18185439     0.11500
H275        H  0.63147655  0.02392737  0.13768369     0.16100
H276        H  0.76228844  0.97951363  0.11513902     0.01800
H277        H  0.65305941  0.89785864  0.15018141     0.16400
H278        H  0.69537017  0.98159059  0.23750495     0.16200
C279        C  0.83300881  0.95704372  0.33259575     0.87900
C280        C  0.85357711  0.91384748  0.32339543    -0.52300
C281        C  0.87741294  0.91240612  0.28715231     0.10900
C282        C  0.87788261  0.95494000  0.26190203     0.21800
C283        C  0.87043819  0.98911181  0.33138880    -0.53000
C284        C  0.89383670  0.98894373  0.29411630     0.11000
C285        C  0.80663735  0.96689775  0.29268259    -0.52500
C286        C  0.82965816  0.96545877  0.25529564     0.11500
H287        H  0.85034916  0.88641349  0.34456579     0.16100
H288        H  0.89682594  0.95380324  0.23192741     0.01800
H289        H  0.87788484  0.00966445  0.35816511     0.16400
H290        H  0.77213590  0.97183059  0.29377816     0.16200
O291        O  0.53686364  0.90961319  0.34457177    -0.71500
O292        O  0.44416382  0.91206532  0.25671203    -0.72500
O293        O  0.53643659  0.90377869  0.25448732    -0.61100
O294        O  0.44539215  0.92035159  0.34626478    -0.69500
O295        O  0.45470243  0.99051299  0.33957948    -0.69100
O296        O  0.54316738  0.97428441  0.24986871    -0.60300
O297        O  0.45161401  0.98243406  0.25026892    -0.72800
O298        O  0.54515177  0.97998586  0.33933417    -0.71600
Cu299      Cu  0.49045078  0.90892765  0.30059063     1.04600
Cu300      Cu  0.49891927  0.98417676  0.29442007     1.04300
C301        C  0.55577588  0.94405542  0.35579236     0.94700
C302        C  0.43227307  0.94748884  0.24057842     0.93800
C303        C  0.55509125  0.93699926  0.23884730     0.86000
C304        C  0.43576598  0.95864489  0.35690095     0.92300
O305        O  0.04038929  0.51550469  0.74405600    -0.71500
O306        O  0.01635369  0.42630691  0.65658760    -0.72500
O307        O  0.03579336  0.51462123  0.65393276    -0.61100
O308        O  0.01989705  0.42527185  0.74589511    -0.69500
O309        O  0.95103787  0.44262570  0.75061962    -0.69100
O310        O  0.96570974  0.52718089  0.65565362    -0.60300
O311        O  0.94636329  0.43888013  0.66066468    -0.72800
O312        O  0.97133715  0.53279849  0.74476561    -0.71600
Cu313      Cu  0.03054620  0.46995692  0.70023450     1.04600
Cu314      Cu  0.95617402  0.48589474  0.70329894     1.04300
C315        C  0.01007807  0.53967993  0.75663870     0.94700
C316        C  0.97788718  0.41833115  0.64484891     0.93800
C317        C  0.00291877  0.53427393  0.63975961     0.86000
C318        C  0.98242002  0.41901507  0.76172419     0.92300
C319        C  0.98927679  0.78581192  0.66105467     0.87900
C320        C  0.94728977  0.80122579  0.68066671    -0.52300
C321        C  0.95243367  0.82840123  0.71397034     0.10900
C322        C  0.99976680  0.83516233  0.72688144     0.21800
C323        C  0.01499100  0.82705981  0.65171919    -0.53000
C324        C  0.02153902  0.85219640  0.68643423     0.11000
C325        C  0.01350533  0.76419641  0.69792285    -0.52500
C326        C  0.01880316  0.79012994  0.73276128     0.11500
H327        H  0.91632626  0.79613083  0.66545241     0.16100
H328        H  0.00385572  0.85607859  0.75508981     0.01800
H329        H  0.02820515  0.83510408  0.62064154     0.16400
H330        H  0.02953906  0.73375068  0.69440904     0.16200
C331        C  0.00548075  0.65127738  0.81196818     0.87900
C332        C  0.03943568  0.64742493  0.84781137    -0.52300
C333        C  0.04361770  0.68353893  0.87219180     0.10900
C334        C  0.01347014  0.71960002  0.85870578     0.21800
C335        C  0.96439026  0.66389360  0.83516338    -0.53000
C336        C  0.96862282  0.69887890  0.86074207     0.11000
C337        C  0.01892553  0.69133561  0.78675933    -0.52500
C338        C  0.02381525  0.72718174  0.81113035     0.11500
H339        H  0.05678445  0.61847278  0.85494040     0.16100
H340        H  0.01648272  0.74876062  0.87861226     0.01800
H341        H  0.93501700  0.64496149  0.83341405     0.16400
H342        H  0.02992385  0.68959021  0.75405868     0.16200
O343        O  0.01331830  0.62468811  0.53519124    -0.71500
O344        O  0.01775005  0.71019009  0.43890885    -0.72500
O345        O  0.03043423  0.71261641  0.53053254    -0.61100
O346        O  0.00220989  0.62266752  0.44617190    -0.69500
O347        O  0.93237253  0.63569105  0.45103903    -0.69100
O348        O  0.96066777  0.72254823  0.54124403    -0.60300
O349        O  0.94877017  0.72469644  0.44926207    -0.72800
O350        O  0.94299113  0.63500536  0.54075401    -0.71600
Cu351      Cu  0.01834663  0.66739587  0.48731621     1.04600
Cu352      Cu  0.94374830  0.68027592  0.49580102     1.04300
C353        C  0.97714450  0.61633221  0.55290355     0.94700
C354        C  0.98343784  0.72949540  0.42785079     0.93800
C355        C  0.99988136  0.72896040  0.55195000     0.86000
C356        C  0.96358520  0.61501366  0.43483230     0.92300
C357        C  0.97203448  0.63137469  0.16687592     0.87900
C358        C  0.93059364  0.64904328  0.14811056    -0.52300
C359        C  0.93670597  0.68172569  0.11980781     0.10900
C360        C  0.98446032  0.69531927  0.11474151     0.21800
C361        C  0.99984666  0.62053237  0.12813047    -0.53000
C362        C  0.00784749  0.65411339  0.10153827     0.11000
C363        C  0.99463183  0.66994330  0.18750173    -0.52500
C364        C  0.00057515  0.70406120  0.16054843     0.11500
H365        H  0.89925102  0.63462691  0.15412016     0.16100
H366        H  0.98981810  0.72254337  0.09254091     0.01800
H367        H  0.01444431  0.58940925  0.12363134     0.16400
H368        H  0.01017651  0.66726972  0.21806873     0.16200
C369        C  0.99567590  0.77085446  0.31201538     0.87900
C370        C  0.03623724  0.79786057  0.31824479    -0.52300
C371        C  0.04464667  0.82592266  0.28622013     0.10900
C372        C  0.01138386  0.82453096  0.25018161     0.21800
C373        C  0.95960928  0.80305147  0.30446298    -0.53000
C374        C  0.96779431  0.83170679  0.27223192     0.11000
C375        C  0.00290186  0.74906800  0.26856497    -0.52500
C376        C  0.01163640  0.77720371  0.23577616     0.11500
H377        H  0.05683570  0.79492328  0.34598403     0.16100
H378        H  0.01801232  0.84756040  0.22393730     0.01800
H379        H  0.93180436  0.80478180  0.32528117     0.16400
H380        H  0.00768581  0.71507318  0.26641865     0.16200
O381        O  0.01955495  0.51134991  0.33954398    -0.71500
O382        O  0.01587380  0.42026286  0.25216955    -0.72500
O383        O  0.02467627  0.51171739  0.25090825    -0.61100
O384        O  0.01019507  0.42217087  0.34133429    -0.69500
O385        O  0.93925077  0.42747223  0.33655871    -0.69100
O386        O  0.95384699  0.51920576  0.24802442    -0.60300
O387        O  0.94518901  0.42721974  0.24640748    -0.72800
O388        O  0.94849415  0.51767851  0.33741435    -0.71600
Cu389      Cu  0.01996837  0.46608205  0.29585746     1.04600
Cu390      Cu  0.94411948  0.47304181  0.29168319     1.04300
C391        C  0.98504231  0.52868509  0.35248210     0.94700
C392        C  0.98001892  0.40819924  0.23645526     0.93800
C393        C  0.99164008  0.53128356  0.23705353     0.86000
C394        C  0.97250569  0.41112992  0.35361228     0.92300
C395        C  0.01231749  0.14550414  0.66198596     0.87900
C396        C  0.05586154  0.12862240  0.67617083    -0.52300
C397        C  0.05528383  0.10707829  0.71396970     0.10900
C398        C  0.01034572  0.10641168  0.73586382     0.21800
C399        C  0.98221796  0.10649676  0.66337527    -0.53000
C400        C  0.98024781  0.08627508  0.70226556     0.11000
C401        C  0.99732846  0.17377736  0.69838537    -0.52500
C402        C  0.99593727  0.15399253  0.73714442     0.11500
H403        H  0.08439504  0.13065604  0.65619018     0.16100
H404        H  0.00933789  0.08987577  0.76719656     0.01800
H405        H  0.96409198  0.09605018  0.63579140     0.16400
H406        H  0.98712711  0.20661460  0.69362345     0.16200
C407        C  0.99213471  0.31065166  0.82441321     0.87900
C408        C  0.95102673  0.30940840  0.85146900    -0.52300
C409        C  0.94748337  0.27486395  0.87800388     0.10900
C410        C  0.98550575  0.24322940  0.87411060     0.21800
C411        C  0.02865108  0.30619443  0.85654641    -0.53000
C412        C  0.02568388  0.27082611  0.88231101     0.11000
C413        C  0.99171911  0.26809579  0.80049971    -0.52500
C414        C  0.98872790  0.23254309  0.82609138     0.11500
H415        H  0.92697935  0.33422081  0.85151967     0.16100
H416        H  0.98300382  0.21466766  0.89510000     0.01800
H417        H  0.05434164  0.32976200  0.85893849     0.16400
H418        H  0.99642257  0.26617024  0.76627912     0.16200
C419        C  0.00815849  0.14362611  0.34558349     0.87900
C420        C  0.97276607  0.10965520  0.34587128    -0.52300
C421        C  0.96975398  0.08634611  0.30938083     0.10900
C422        C  0.00426493  0.09877512  0.27542130     0.21800
C423        C  0.04928053  0.11958353  0.33557487    -0.53000
C424        C  0.04778497  0.09596349  0.29926839     0.11000
C425        C  0.99971627  0.17058188  0.30586689    -0.52500
C426        C  0.99816617  0.14765680  0.26894775     0.11500
H427        H  0.95062983  0.10543379  0.37241602     0.16100
H428        H  0.00248671  0.07998416  0.24557453     0.01800
H429        H  0.07742916  0.12071222  0.35597011     0.16400
H430        H  0.99572552  0.20505617  0.30677273     0.16200
C431        C  0.01381027  0.30279274  0.18014154     0.87900
C432        C  0.05576817  0.30368006  0.15488968    -0.52300
C433        C  0.06202212  0.26903501  0.12962394     0.10900
C434        C  0.02593510  0.23485092  0.13322185     0.21800
C435        C  0.97868885  0.29523731  0.14666916    -0.53000
C436        C  0.98474040  0.25946113  0.12239637     0.11000
C437        C  0.01515206  0.26111334  0.20562435    -0.52500
C438        C  0.02118778  0.22528949  0.18152346     0.11500
H439        H  0.07774743  0.33088974  0.15515856     0.16100
H440        H  0.03106674  0.20609340  0.11328705     0.01800
H441        H  0.95177748  0.31631533  0.14137827     0.16400
H442        H  0.01153241  0.25997934  0.24002120     0.16200
O443        O  0.95957358  0.32133847  0.54859571    -0.63100
O444        O  0.94757816  0.23300355  0.45704444    -0.72500
O445        O  0.94864430  0.23145545  0.54886976    -0.61100
O446        O  0.95884806  0.32213743  0.45814633    -0.69500
O447        O  0.02973039  0.31429454  0.45797590    -0.69100
O448        O  0.01938680  0.22311741  0.54733696    -0.60300
O449        O  0.01842310  0.22514409  0.45615418    -0.72800
O450        O  0.03033423  0.31249276  0.54782969    -0.71600
Cu451      Cu  0.95110799  0.27708609  0.50325330     1.04600
Cu452      Cu  0.02686746  0.26830265  0.50231983     1.04300
C453        C  0.99698679  0.33085504  0.56247799     0.94700
C454        C  0.98131019  0.21653500  0.44095409     0.93800
C455        C  0.98263645  0.21403330  0.56341773     0.86000
C456        C  0.99601582  0.33217982  0.44362002     0.92300
C457        C  0.01120297  0.16902104  0.38624038    -0.15000
C458        C  0.97721233  0.18904052  0.40317613    -0.30200
H459        H  0.04212480  0.17099791  0.40214834     0.14000
H460        H  0.94600952  0.18646698  0.38791827     0.14600
C461        C  0.98990924  0.17045681  0.22838740    -0.15000
C462        C  0.02216491  0.18225206  0.20200643    -0.30200
H463        H  0.96076450  0.18941176  0.22782444     0.14000
H464        H  0.05264976  0.16563678  0.20308699     0.14600
C465        C  0.01431342  0.16849566  0.61946860    -0.15000
C466        C  0.97933562  0.18518192  0.60076376    -0.30200
H467        H  0.04563945  0.17332889  0.60475069     0.14000
H468        H  0.94795145  0.18030995  0.61532282     0.14600
C469        C  0.97544045  0.17725178  0.77288963    -0.15000
C470        C  0.99670350  0.18922310  0.80806514    -0.30200
H471        H  0.94743224  0.19595377  0.76419290     0.14000
H472        H  0.02577314  0.17272748  0.81743306     0.14600
C473        C  0.00075994  0.36423327  0.40959124    -0.15000
C474        C  0.96699149  0.37959286  0.38809262    -0.30200
H475        H  0.03314922  0.37459557  0.40130231     0.14000
H476        H  0.93458515  0.36908591  0.39612402     0.14600
C477        C  0.97876316  0.37109196  0.20759554    -0.15000
C478        C  0.01047697  0.34192462  0.20825733    -0.30200
H479        H  0.95076015  0.36721800  0.18764075     0.14000
H480        H  0.03678854  0.34633526  0.23055955     0.14600
C481        C  0.96498561  0.59325320  0.19593443    -0.15000
C482        C  0.99788538  0.56916371  0.20956333    -0.30200
H483        H  0.93224432  0.58419470  0.20433287     0.14000
H484        H  0.03059877  0.57811246  0.20093245     0.14600
C485        C  0.03430342  0.73708612  0.16722299    -0.15000
C486        C  0.03892687  0.76657665  0.19822041    -0.30200
H487        H  0.05756281  0.73932698  0.14143040     0.14000
H488        H  0.06560557  0.78874943  0.19339753     0.14600
C489        C  0.98901867  0.56167349  0.38500324    -0.15000
C490        C  0.95561765  0.58206664  0.40249032    -0.30200
H491        H  0.02160457  0.56943057  0.39488294     0.14000
H492        H  0.92286521  0.57474778  0.39292757     0.14600
C493        C  0.98374078  0.75731165  0.38981917    -0.15000
C494        C  0.98877104  0.74145293  0.35011528    -0.30200
H495        H  0.98049776  0.79153292  0.39445957     0.14000
H496        H  0.99062697  0.70708454  0.34561850     0.14600
C497        C  0.98106408  0.75903939  0.62176293    -0.15000
C498        C  0.01041480  0.75318811  0.59084389    -0.30200
H499        H  0.94865073  0.74677638  0.61697287     0.14000
H500        H  0.04325499  0.76431422  0.59522167     0.14600
C501        C  0.05471716  0.78498644  0.76304434    -0.15000
C502        C  0.05478167  0.76116061  0.79872482    -0.30200
H503        H  0.08073813  0.80809759  0.75957355     0.14000
H504        H  0.08098769  0.76669715  0.82085187     0.14600
C505        C  0.00272676  0.36334302  0.59556631    -0.15000
C506        C  0.96997004  0.38527570  0.61252097    -0.30200
H507        H  0.03543756  0.36963666  0.60598261     0.14000
H508        H  0.93716864  0.37924401  0.60226759     0.14600
C509        C  0.00797501  0.56519209  0.60452677    -0.15000
C510        C  0.97382742  0.58525639  0.58798771    -0.30200
H511        H  0.03998570  0.57127754  0.59186835     0.14000
H512        H  0.94192238  0.57906206  0.60088797     0.14600
C513        C  0.02064550  0.57616607  0.78452611    -0.15000
C514        C  0.99751194  0.61241456  0.78396711    -0.30200
H515        H  0.04962762  0.57374220  0.80325825     0.14000
H516        H  0.97078323  0.61465958  0.76187012     0.14600
C517        C  0.97409609  0.38367551  0.79222068    -0.15000
C518        C  0.99971857  0.34915166  0.79517485    -0.30200
H519        H  0.94464504  0.38563208  0.81036303     0.14000
H520        H  0.02854842  0.34827394  0.77557894     0.14600
C521        C  0.89999753  0.87224099  0.27673208    -0.15000
C522        C  0.94145743  0.87080899  0.26490039    -0.30200
H523        H  0.88422150  0.84289610  0.28711706     0.14000
H524        H  0.95776030  0.89982380  0.25435332     0.14600
C525        C  0.93122497  0.01862201  0.28645155    -0.15000
C526        C  0.93187888  0.05745463  0.30477419    -0.30200
H527        H  0.95845818  0.00782935  0.26781656     0.14000
H528        H  0.90347990  0.06741390  0.32219719     0.14600
C529        C  0.61795154  0.96673745  0.20127829    -0.15000
C530        C  0.59204725  0.93274656  0.20924868    -0.30200
H531        H  0.61035666  0.99709386  0.21616245     0.14000
H532        H  0.59933190  0.90138799  0.19680940     0.14600
C533        C  0.77470697  0.99381389  0.20663232    -0.15000
C534        C  0.80760066  0.96686924  0.21305452    -0.30200
H535        H  0.76985087  0.01883008  0.23006489     0.14000
H536        H  0.81320030  0.94089915  0.19095355     0.14600
C537        C  0.08459851  0.03061238  0.27413284    -0.15000
C538        C  0.08623769  0.07107349  0.28770803    -0.30200
H539        H  0.05512872  0.01732435  0.26109146     0.14000
H540        H  0.11655278  0.08263122  0.30069533     0.14600
C541        C  0.08603810  0.89232825  0.27067352    -0.15000
C542        C  0.08311933  0.85342781  0.28847998    -0.30200
H543        H  0.06225853  0.90315673  0.24795446     0.14000
H544        H  0.10804393  0.84306943  0.31025803     0.14600
C545        C  0.38176355  0.98235395  0.19108874    -0.15000
C546        C  0.39437429  0.94742065  0.21235090    -0.30200
H547        H  0.40168562  0.01103864  0.19223846     0.14000
H548        H  0.37512774  0.91834065  0.21048917     0.14600
C549        C  0.21940181  0.98062699  0.19565554    -0.15000
C550        C  0.21551630  0.95556304  0.23033163    -0.30200
H551        H  0.19363279  0.00187105  0.18634698     0.14000
H552        H  0.24186182  0.93435590  0.23823194     0.14600
C553        C  0.37611123  0.93839718  0.40619490    -0.15000
C554        C  0.40274857  0.96786411  0.38925897    -0.30200
H555        H  0.37832475  0.90517707  0.39650708     0.14000
H556        H  0.39984666  0.00105379  0.39890632     0.14600
C557        C  0.20304574  0.99024489  0.40029687    -0.15000
C558        C  0.17834669  0.95900863  0.38398100    -0.30200
H559        H  0.20745789  0.01975254  0.38236719     0.14000
H560        H  0.17330302  0.92969780  0.40208727     0.14600
C561        C  0.09090202  0.03894523  0.73295803    -0.15000
C562        C  0.09360368  0.08110002  0.72478214    -0.30200
H563        H  0.06059372  0.02502359  0.74352105     0.14000
H564        H  0.12437568  0.09365879  0.71369989     0.14600
C565        C  0.04926695  0.89050616  0.68370296    -0.15000
C566        C  0.07645354  0.90291865  0.71475181    -0.30200
H567        H  0.05081543  0.90586532  0.65270601     0.14000
H568        H  0.07460620  0.88869433  0.74625888     0.14600
C569        C  0.18028610  0.97322670  0.61497062    -0.15000
C570        C  0.20998658  0.00103738  0.60040394    -0.30200
H571        H  0.17060656  0.94720027  0.59414658     0.14000
H572        H  0.21927469  0.02835008  0.61962639     0.14600
C573        C  0.21216211  0.94224037  0.76730819    -0.15000
C574        C  0.21634196  0.95963882  0.80628970    -0.30200
H575        H  0.23844772  0.92267391  0.75577030     0.14000
H576        H  0.19085117  0.97907910  0.81944842     0.14600
C577        C  0.60924175  0.97636069  0.40400625    -0.15000
C578        C  0.59025902  0.94140841  0.38790203    -0.30200
H579        H  0.59891400  0.00782584  0.39362351     0.14000
H580        H  0.59985820  0.90991430  0.39887081     0.14600
C581        C  0.78947533  0.98905517  0.39318042    -0.15000
C582        C  0.80736652  0.95512258  0.37395321    -0.30200
H583        H  0.79402593  0.02078992  0.37965715     0.14000
H584        H  0.80302211  0.92388004  0.38870610     0.14600
C585        C  0.92538550  0.90146383  0.71993199    -0.15000
C586        C  0.91771288  0.85925064  0.72163884    -0.30200
H587        H  0.95759749  0.91430782  0.72417861     0.14000
H588        H  0.88500071  0.84794122  0.71636490     0.14600
C589        C  0.81748461  0.94783985  0.60829902    -0.15000
C590        C  0.79220977  0.97867436  0.59221109    -0.30200
H591        H  0.82090478  0.91755382  0.59189182     0.14000
H592        H  0.79055657  0.00892656  0.60904287     0.14600
C593        C  0.91324193  0.04578914  0.69046066    -0.15000
C594        C  0.95105821  0.04906257  0.71087398    -0.30200
H595        H  0.90345964  0.07191645  0.66984491     0.14000
H596        H  0.96146247  0.02393101  0.73233481     0.14600
C597        C  0.80400710  0.96849244  0.76723509    -0.15000
C598        C  0.76212946  0.97887872  0.76616820    -0.30200
H599        H  0.81910971  0.95898239  0.79683701     0.14000
H600        H  0.74959954  0.99066157  0.73615235     0.14600
C601        C  0.59322597  0.98955353  0.60809906    -0.15000
C602        C  0.61282271  0.95705332  0.58814968    -0.30200
H603        H  0.60255362  0.02231590  0.60074241     0.14000
H604        H  0.60383770  0.92429149  0.59594721     0.14600
C605        C  0.40414751  0.98632257  0.60441227    -0.15000
C606        C  0.38183017  0.95315563  0.58826269    -0.30200
H607        H  0.39673077  0.01879570  0.59462280     0.14000
H608        H  0.38806636  0.92078335  0.59916170     0.14600
C609        C  0.61001547  0.98695224  0.80790576    -0.15000
C610        C  0.59203523  0.95564777  0.78446332    -0.30200
H611        H  0.59415836  0.01758444  0.81119563     0.14000
H612        H  0.60821339  0.92505518  0.78223808     0.14600
C613        C  0.39440785  0.95400265  0.77899487    -0.15000
C614        C  0.37614114  0.98573572  0.80122637    -0.30200
H615        H  0.38038730  0.92209068  0.78049665     0.14000
H616        H  0.39043046  0.01755285  0.80038603     0.14600
C617        C  0.28056383  0.87983805  0.94043036    -0.15000
C618        C  0.31115183  0.90411782  0.92151315    -0.30200
H619        H  0.24685378  0.88452781  0.93318298     0.14000
H620        H  0.34422517  0.89954824  0.93140836     0.14600
C621        C  0.29182864  0.87854944  0.08420516    -0.15000
C622        C  0.28330574  0.92012710  0.07813697    -0.30200
H623        H  0.30361990  0.86846321  0.11518355     0.14000
H624        H  0.27197513  0.93158646  0.04752246     0.14600
C625        C  0.04134898  0.64981059  0.06821907    -0.15000
C626        C  0.06782979  0.68164935  0.05535749    -0.30200
H627        H  0.04883721  0.61730896  0.05870043     0.14000
H628        H  0.06113985  0.71468054  0.06315873     0.14600
C629        C  0.10456370  0.66192631  0.91851933    -0.15000
C630        C  0.07102184  0.68751564  0.91077761    -0.30200
H631        H  0.11333712  0.63807094  0.89513089     0.14000
H632        H  0.06223040  0.71177296  0.93366572     0.14600
C633        C  0.19629690  0.58837775  0.02709828    -0.15000
C634        C  0.22648849  0.57345374  0.00061467    -0.30200
H635        H  0.18974148  0.57191594  0.05696883     0.14000
H636        H  0.23136264  0.58915583  0.97003609     0.14600
C637        C  0.23027475  0.75782656  0.02815716    -0.15000
C638        C  0.19762045  0.74763232  0.00176631    -0.30200
H639        H  0.23576365  0.73716977  0.05547750     0.14000
H640        H  0.19120560  0.76734137  0.97402379     0.14600
C641        C  0.28399349  0.06325105  0.05113483    -0.15000
C642        C  0.29203708  0.06685122  0.09276756    -0.30200
H643        H  0.27145825  0.03362561  0.03799367     0.14000
H644        H  0.30556926  0.09684156  0.10424854     0.14600
C645        C  0.28577220  0.08374947  0.90897245    -0.15000
C646        C  0.27607656  0.04191913  0.91356084    -0.30200
H647        H  0.29570330  0.09558518  0.87789270     0.14000
H648        H  0.26640868  0.02945847  0.94448452     0.14600
C649        C  0.09270449  0.25985901  0.05727398    -0.15000
C650        C  0.09770244  0.27022394  0.09842525    -0.30200
H651        H  0.06416470  0.24266208  0.04693526     0.14000
H652        H  0.12662783  0.28731230  0.10798545     0.14600
C653        C  0.09880899  0.27367072  0.91087122    -0.15000
C654        C  0.05775649  0.26119114  0.91577299    -0.30200
H655        H  0.10922941  0.28728017  0.88065552     0.14000
H656        H  0.04675903  0.24734084  0.94566940     0.14600
C657        C  0.22304232  0.37723366  0.02623184    -0.15000
C658        C  0.20282186  0.36267304  0.99141115    -0.30200
H659        H  0.21916438  0.36044194  0.05634681     0.14000
H660        H  0.20573482  0.38084861  0.96195402     0.14600
C661        C  0.20670094  0.20166668  0.98388111    -0.15000
C662        C  0.24246861  0.19598631  0.00676844    -0.30200
H663        H  0.19673043  0.17836952  0.96029225     0.14000
H664        H  0.25101648  0.22009547  0.03019396     0.14600
C665        C  0.42105364  0.36477192  0.00544393    -0.15000
C666        C  0.40388974  0.38480546  0.03920139    -0.30200
H667        H  0.41050176  0.37275740  0.97347235     0.14000
H668        H  0.41415433  0.37685192  0.07126813     0.14600
C669        C  0.39722229  0.16453616  0.99085987    -0.15000
C670        C  0.41313916  0.18493051  0.02515557    -0.30200
H671        H  0.41558704  0.16467132  0.96138252     0.14000
H672        H  0.39524972  0.18421414  0.05490096     0.14600
C673        C  0.91267055  0.25595819  0.94819956    -0.15000
C674        C  0.91130821  0.27375953  0.90915351    -0.30200
H675        H  0.93856431  0.23456951  0.95675486     0.14000
H676        H  0.88423113  0.29415078  0.90161533     0.14600
C677        C  0.91232941  0.25218249  0.09390201    -0.15000
C678        C  0.95474097  0.24795791  0.08764425    -0.30200
H679        H  0.90084255  0.25777026  0.12611307     0.14000
H680        H  0.96761407  0.24343369  0.05582713     0.14600
C681        C  0.70035050  0.04572185  0.09099590    -0.15000
C682        C  0.71824013  0.04617197  0.05188212    -0.30200
H683        H  0.68222509  0.07354298  0.10089095     0.14000
H684        H  0.73738071  0.01945052  0.04105514     0.14600
C685        C  0.72645394  0.07833988  0.90552798    -0.15000
C686        C  0.73089652  0.03595665  0.90383758    -0.30200
H687        H  0.71729051  0.09486560  0.87643341     0.14000
H688        H  0.73856101  0.01794908  0.93243275     0.14600
C689        C  0.62509107  0.16379995  0.99029305    -0.15000
C690        C  0.60959081  0.18380995  0.02465388    -0.30200
H691        H  0.60803782  0.16650821  0.96026035     0.14000
H692        H  0.62597665  0.18078270  0.05499605     0.14600
C693        C  0.78632124  0.17262675  0.00370520    -0.15000
C694        C  0.78770778  0.20806247  0.02792275    -0.30200
H695        H  0.81352271  0.16418420  0.98383641     0.14000
H696        H  0.76007857  0.21507500  0.04787108     0.14600
C697        C  0.62382131  0.38683748  0.03247763    -0.15000
C698        C  0.60583638  0.36520919  0.00025901    -0.30200
H699        H  0.61512278  0.37907856  0.06514058     0.14000
H700        H  0.61509470  0.37273066  0.96768497     0.14600
C701        C  0.79761240  0.38180263  0.99705117    -0.15000
C702        C  0.82115147  0.36410036  0.02809152    -0.30200
H703        H  0.79448375  0.36516433  0.96690882     0.14000
H704        H  0.82526111  0.38116369  0.05788349     0.14600
C705        C  0.68462409  0.88889862  0.92632749    -0.15000
C706        C  0.71462266  0.90526155  0.89958907    -0.30200
H707        H  0.65100386  0.89655965  0.92214987     0.14000
H708        H  0.74828637  0.89793972  0.90430078     0.14600
C709        C  0.72515318  0.89463079  0.10318711    -0.15000
C710        C  0.73074940  0.89652004  0.06074421    -0.30200
H711        H  0.72178935  0.86355169  0.11839622     0.14000
H712        H  0.73387615  0.92744257  0.04512266     0.14600
C713        C  0.91593616  0.67696706  0.91440542    -0.15000
C714        C  0.93658805  0.70912547  0.89430850    -0.30200
H715        H  0.92364036  0.64424321  0.90593554     0.14000
H716        H  0.93107954  0.74217720  0.90299633     0.14600
C717        C  0.78568935  0.61978645  0.98571981    -0.15000
C718        C  0.79988256  0.58102897  0.99787395    -0.30200
H719        H  0.75198797  0.62399450  0.97781327     0.14000
H720        H  0.83302013  0.57722070  0.00792139     0.14600
C721        C  0.90510963  0.70666280  0.05148783    -0.15000
C722        C  0.90028397  0.69499133  0.09246979    -0.30200
H723        H  0.93670450  0.71517797  0.03927720     0.14000
H724        H  0.86827529  0.68710452  0.10410789     0.14600
C725        C  0.81723911  0.77300782  0.94029845    -0.15000
C726        C  0.78841737  0.80466589  0.94627973    -0.30200
H727        H  0.84142143  0.77935951  0.91600745     0.14000
H728        H  0.79312098  0.83210269  0.92541324     0.14600
C729        C  0.60822510  0.59438484  0.05685321    -0.15000
C730        C  0.62048427  0.57324976  0.02186084    -0.30200
H731        H  0.62300763  0.58759736  0.08739490     0.14000
H732        H  0.60500799  0.58027037  0.99168970     0.14600
C733        C  0.42048121  0.58933494  0.05493590    -0.15000
C734        C  0.40511718  0.57005576  0.01982436    -0.30200
H735        H  0.40834748  0.58015325  0.08613820     0.14000
H736        H  0.41770945  0.57897305  0.98871028     0.14600
C737        C  0.40692592  0.76232502  0.04212679    -0.15000
C738        C  0.38855680  0.77881638  0.00693771    -0.30200
H739        H  0.38994411  0.76450215  0.07229701     0.14000
H740        H  0.40569936  0.77791195  0.97679353     0.14600
C741        C  0.60964880  0.77496033  0.03892999    -0.15000
C742        C  0.64683209  0.76451945  0.01931059    -0.30200
H743        H  0.60519437  0.80697009  0.05138723     0.14000
H744        H  0.65153249  0.73172994  0.00897789     0.14600
loop_ 
_geom_bond_atom_site_label_1 
_geom_bond_atom_site_label_2 
_geom_bond_distance 
_geom_bond_site_symmetry_2 
_ccdc_geom_bond_type 
O1           Cu9   2.036       .  S
O1           C11   1.280       .  A
O2           Cu9   2.024       .  S
O2           C12   1.279       .  A
O3           Cu9   2.013       .  S
O3           C13   1.276       .  A
O4           Cu9   2.010       .  S
O4           C14   1.278       .  A
O5          Cu10   2.030       .  S
O5           C14   1.280       .  A
O6          Cu10   2.004       .  S
O6           C13   1.280       .  A
O7          Cu10   1.999       .  S
O7           C12   1.277       .  A
O8          Cu10   2.008       .  S
O8           C11   1.276       .  A
Cu9         Cu10   2.371       .  S
C11         C741   1.478       .  S
C12         C733   1.478       .  S
C13         C729   1.479       .  S
C14         C737   1.481       .  S
C15          C16   1.524       .  S
C15          C21   1.536       .  S
C15          C19   1.534   1_556  S
C15         C717   1.513       .  S
C16          H23   1.087       .  S
C16          C17   1.357       .  D
C17          C18   1.543       .  S
C17         C713   1.475       .  S
C18          C22   1.550       .  S
C18          C20   1.541   1_556  S
C18          H24   1.110       .  S
C19          H25   1.085       .  S
C19          C20   1.371       .  D
C20         C721   1.492       .  S
C21          H26   1.084       .  S
C21          C22   1.371       .  D
C22         C725   1.483       .  S
C27          C28   1.527       .  S
C27          C33   1.542   1_554  S
C27          C31   1.534   1_554  S
C27         C742   1.520       .  S
C28          H35   1.085       .  S
C28          C29   1.370       .  D
C29          C30   1.547   1_554  S
C29         C710   1.496       .  S
C30          C34   1.549       .  S
C30          C32   1.536       .  S
C30          H36   1.110       .  S
C31          H37   1.087       .  S
C31          C32   1.361       .  D
C32         C705   1.478       .  S
C33          H38   1.077       .  S
C33          C34   1.373       .  D
C34         C726   1.497       .  S
O39         Cu47   2.022       .  S
O39          C49   1.279   1_556  A
O40         Cu47   2.014       .  S
O40          C50   1.280   1_556  A
O41         Cu47   1.979       .  S
O41          C51   1.273   1_556  A
O42         Cu47   1.998       .  S
O42          C52   1.275   1_556  A
O43         Cu48   2.036       .  S
O43          C52   1.282       .  A
O44         Cu48   2.037       .  S
O44          C51   1.282       .  A
O45         Cu48   2.001       .  S
O45          C50   1.275       .  A
O46         Cu48   2.002       .  S
O46          C49   1.275       .  A
Cu47        Cu48   2.374   1_556  S
C49         C718   1.467   1_554  S
C50         C697   1.475       .  S
C51         C730   1.471       .  S
C52         C701   1.480   1_554  S
C53          C54   1.520       .  S
C53          C59   1.527   1_556  S
C53          C57   1.529   1_556  S
C53         C689   1.509       .  S
C54          H61   1.088       .  S
C54          C55   1.357       .  D
C55          C56   1.550       .  S
C55         C685   1.474       .  S
C56          C60   1.553       .  S
C56          C58   1.553   1_556  S
C56          H62   1.110       .  S
C57          H63   1.086       .  S
C57          C58   1.375       .  D
C58         C682   1.500       .  S
C59          H64   1.086       .  S
C59          C60   1.373   1_554  D
C60         C693   1.498   1_556  S
C65          C66   1.525       .  S
C65          C71   1.526       .  S
C65          C69   1.535   1_554  S
C65         C702   1.518       .  S
C66          H73   1.087       .  S
C66          C67   1.362       .  D
C67          C68   1.545       .  S
C67         C677   1.470       .  S
C68          C72   1.552       .  S
C68          C70   1.548   1_554  S
C68          H74   1.111       .  S
C69          H75   1.085       .  S
C69          C70   1.376       .  D
C70         C673   1.497       .  S
C71          H76   1.087       .  S
C71          C72   1.366       .  D
C72         C694   1.485       .  S
O77         Cu85   2.029       .  S
O77          C87   1.280       .  A
O78         Cu85   2.024       .  S
O78          C88   1.281       .  A
O79         Cu85   2.001       .  S
O79          C89   1.277       .  A
O80         Cu85   2.007       .  S
O80          C90   1.276       .  A
O81         Cu86   2.004       .  S
O81          C90   1.279   1_556  A
O82         Cu86   2.005       .  S
O82          C89   1.277   1_556  A
O83         Cu86   1.997       .  S
O83          C88   1.275   1_556  A
O84         Cu86   2.000       .  S
O84          C87   1.277   1_556  A
Cu85        Cu86   2.375   1_554  S
C87         C670   1.480       .  S
C88         C698   1.474       .  S
C89         C665   1.470       .  S
C90         C690   1.474       .  S
C91          C92   1.526       .  S
C91          C97   1.528       .  S
C91          C95   1.536   1_556  S
C91         C658   1.516       .  S
C92          H99   1.087       .  S
C92          C93   1.359       .  D
C93          C94   1.541       .  S
C93         C653   1.470       .  S
C94          C98   1.542       .  S
C94          C96   1.541   1_556  S
C94         H100   1.111       .  S
C95         H101   1.085       .  S
C95          C96   1.375       .  D
C96         C649   1.488       .  S
C97         H102   1.086       .  S
C97          C98   1.373       .  D
C98         C661   1.487       .  S
C103        C104   1.533   1_556  S
C103        C109   1.521       .  S
C103        C107   1.532       .  S
C103        C669   1.515       .  S
C104        H111   1.086       .  S
C104        C105   1.374       .  D
C105        C106   1.538   1_554  S
C105        C641   1.480       .  S
C106        C110   1.550       .  S
C106        C108   1.542       .  S
C106        H112   1.111       .  S
C107        H113   1.087       .  S
C107        C108   1.366       .  D
C108        C645   1.477       .  S
C109        H114   1.088   1_556  S
C109        C110   1.361       .  D
C110        C662   1.474   1_556  S
C115        C116   1.527       .  S
C115        C121   1.527       .  S
C115        C119   1.534   1_554  S
C115        C633   1.516       .  S
C116        H123   1.086       .  S
C116        C117   1.371       .  D
C117        C118   1.547   1_554  S
C117        C626   1.490       .  S
C118        C122   1.554   1_556  S
C118        C120   1.552       .  S
C118        H124   1.109       .  S
C119        H125   1.087       .  S
C119        C120   1.364       .  D
C120        C629   1.487       .  S
C121        H126   1.086       .  S
C121        C122   1.369       .  D
C122        C638   1.501       .  S
C127        C128   1.531   1_554  S
C127        C133   1.527       .  S
C127        C131   1.529       .  S
C127        C738   1.525       .  S
C128        H135   1.085       .  S
C128        C129   1.377       .  D
C129        C130   1.550   1_556  S
C129        C617   1.502       .  S
C130        C134   1.557       .  S
C130        C132   1.548       .  S
C130        H136   1.110       .  S
C131        H137   1.087       .  S
C131        C132   1.360       .  D
C132        C621   1.475       .  S
C133        H138   1.087       .  S
C133        C134   1.367       .  D
C134        C637   1.488       .  S
O139       Cu147   2.033       .  S
O139        C149   1.281       .  A
O140       Cu147   2.021       .  S
O140        C150   1.279       .  A
O141       Cu147   2.014       .  S
O141        C151   1.278       .  A
O142       Cu147   2.016       .  S
O142        C152   1.277       .  A
O143       Cu148   2.018       .  S
O143        C152   1.280   1_556  A
O144       Cu148   2.011       .  S
O144        C151   1.278   1_556  A
O145       Cu148   1.986       .  S
O145        C150   1.276   1_556  A
O146       Cu148   1.985       .  S
O146        C149   1.273   1_556  A
Cu147      Cu148   2.374   1_554  S
C149        C634   1.471       .  S
C150        C666   1.474       .  S
C151        C734   1.476       .  S
C152        C657   1.480       .  S
O153       Cu161   2.015   1_565  S
O153        C163   1.279       .  A
O154       Cu161   2.018       .  S
O154        C164   1.278   1_545  A
O155       Cu161   2.011       .  S
O155        C165   1.278   1_545  A
O156       Cu161   2.018   1_565  S
O156        C166   1.278       .  A
O157       Cu162   2.002       .  S
O157        C166   1.277       .  A
O158       Cu162   1.999       .  S
O158        C165   1.277       .  A
O159       Cu162   2.017       .  S
O159        C164   1.279       .  A
O160       Cu162   2.010       .  S
O160        C163   1.277       .  A
Cu161      Cu162   2.375   1_545  S
C163        C613   1.477       .  S
C164        C601   1.481       .  S
C165        C605   1.471       .  S
C166        C610   1.472       .  S
C167        C168   1.528       .  S
C167        C173   1.527       .  S
C167        C171   1.530       .  S
C167        C589   1.524       .  S
C168        H175   1.087   1_565  S
C168        C169   1.361   1_565  D
C169        C170   1.549   1_545  S
C169        C593   1.482       .  S
C170        C174   1.551       .  S
C170        C172   1.539       .  S
C170        H176   1.110       .  S
C171        H177   1.086       .  S
C171        C172   1.374       .  D
C172        C585   1.475       .  S
C173        H178   1.085       .  S
C173        C174   1.375       .  D
C174        C597   1.503       .  S
C179        C180   1.528       .  S
C179        C185   1.515       .  S
C179        C183   1.536   1_565  S
C179        C609   1.515       .  S
C180        H187   1.084       .  S
C180        C181   1.370       .  D
C181        C182   1.548       .  S
C181        C706   1.491       .  S
C182        C186   1.557       .  S
C182        C184   1.538   1_565  S
C182        H188   1.110       .  S
C183        H189   1.086       .  S
C183        C184   1.377       .  D
C184        C686   1.482       .  S
C185        H190   1.088       .  S
C185        C186   1.360       .  D
C186        C598   1.489       .  S
O191       Cu199   1.992       .  S
O191        C201   1.275   1_545  A
O192       Cu199   1.988       .  S
O192        C202   1.273   1_545  A
O193       Cu199   2.025       .  S
O193        C203   1.280   1_545  A
O194       Cu199   2.031       .  S
O194        C204   1.279   1_545  A
O195       Cu200   2.017       .  S
O195        C204   1.280       .  A
O196       Cu200   2.011       .  S
O196        C203   1.277       .  A
O197       Cu200   2.034       .  S
O197        C202   1.282       .  A
O198       Cu200   2.044       .  S
O198        C201   1.281       .  A
Cu199      Cu200   2.372   1_545  S
C201        C590   1.477       .  S
C202        C577   1.476       .  S
C203        C602   1.480       .  S
C204        C581   1.490       .  S
C205        C206   1.525       .  S
C205        C211   1.522       .  S
C205        C209   1.536   1_565  S
C205        C569   1.518       .  S
C206        H213   1.085       .  S
C206        C207   1.365       .  D
C207        C208   1.545       .  S
C207        C566   1.487       .  S
C208        C212   1.557       .  S
C208        C210   1.550   1_565  S
C208        H214   1.111       .  S
C209        H215   1.086       .  S
C209        C210   1.379       .  D
C210        C561   1.495       .  S
C211        H216   1.087       .  S
C211        C212   1.365       .  D
C212        C573   1.490       .  S
C217        C218   1.528   1_565  S
C217        C223   1.524       .  S
C217        C221   1.521       .  S
C217        C614   1.515       .  S
C218        H225   1.085       .  S
C218        C219   1.371       .  D
C219        C220   1.550   1_545  S
C219        C646   1.491       .  S
C220        C224   1.558       .  S
C220        C222   1.557       .  S
C220        H226   1.110       .  S
C221        H227   1.087       .  S
C221        C222   1.363       .  D
C222        C618   1.488       .  S
C223        H228   1.086       .  S
C223        C224   1.373       .  D
C224        C574   1.502       .  S
O229       Cu237   2.006       .  S
O229        C239   1.276   1_545  A
O230       Cu237   1.990   1_565  S
O230        C240   1.276       .  A
O231       Cu237   2.014   1_565  S
O231        C241   1.281       .  A
O232       Cu237   2.023       .  S
O232        C242   1.278   1_545  A
O233       Cu238   2.013       .  S
O233        C242   1.280       .  A
O234       Cu238   2.011       .  S
O234        C241   1.276       .  A
O235       Cu238   2.020       .  S
O235        C240   1.279       .  A
O236       Cu238   2.021       .  S
O236        C239   1.280       .  A
Cu237      Cu238   2.373   1_545  S
C239        C557   1.478       .  S
C240        C606   1.473       .  S
C241        C553   1.480       .  S
C242        C570   1.484   1_565  S
C243        C244   1.534       .  S
C243        C249   1.527       .  S
C243        C247   1.521   1_565  S
C243        C545   1.514       .  S
C244        H251   1.086       .  S
C244        C245   1.373       .  D
C245        C246   1.542       .  S
C245        C622   1.487       .  S
C246        C250   1.549       .  S
C246        C248   1.546   1_565  S
C246        H252   1.111       .  S
C247        H253   1.087       .  S
C247        C248   1.358       .  D
C248        C642   1.472       .  S
C249        H254   1.086       .  S
C249        C250   1.374       .  D
C250        C549   1.493       .  S
C255        C256   1.530   1_565  S
C255        C261   1.523       .  S
C255        C259   1.526       .  S
C255        C558   1.514       .  S
C256        H263   1.086       .  S
C256        C257   1.374       .  D
C257        C258   1.542   1_545  S
C257        C537   1.486       .  S
C258        C262   1.549       .  S
C258        C260   1.539       .  S
C258        H264   1.111       .  S
C259        H265   1.085       .  S
C259        C260   1.372       .  D
C260        C541   1.481       .  S
C261        H266   1.087       .  S
C261        C262   1.363       .  D
C262        C550   1.478       .  S
C267        C268   1.526   1_565  S
C267        C273   1.525       .  S
C267        C271   1.532       .  S
C267        C529   1.517       .  S
C268        H275   1.087       .  S
C268        C269   1.365       .  D
C269        C270   1.553   1_545  S
C269        C681   1.486       .  S
C270        C274   1.557       .  S
C270        C272   1.552       .  S
C270        H276   1.110       .  S
C271        H277   1.084       .  S
C271        C272   1.369       .  D
C272        C709   1.481       .  S
C273        H278   1.088       .  S
C273        C274   1.363       .  D
C274        C533   1.486       .  S
C279        C280   1.528       .  S
C279        C285   1.532       .  S
C279        C283   1.531       .  S
C279        C582   1.524       .  S
C280        H287   1.087       .  S
C280        C281   1.358       .  D
C281        C282   1.546       .  S
C281        C521   1.482       .  S
C282        C286   1.553       .  S
C282        C284   1.551       .  S
C282        H288   1.110       .  S
C283        H289   1.085   1_565  S
C283        C284   1.377       .  D
C284        C525   1.501   1_565  S
C285        H290   1.086       .  S
C285        C286   1.375       .  D
C286        C534   1.497       .  S
O291       Cu299   2.002       .  S
O291        C301   1.275       .  A
O292       Cu299   1.999       .  S
O292        C302   1.274       .  A
O293       Cu299   2.041       .  S
O293        C303   1.282       .  A
O294       Cu299   2.038       .  S
O294        C304   1.282       .  A
O295       Cu300   1.985       .  S
O295        C304   1.273       .  A
O296       Cu300   1.987       .  S
O296        C303   1.275       .  A
O297       Cu300   2.026       .  S
O297        C302   1.282       .  A
O298       Cu300   2.023       .  S
O298        C301   1.281       .  A
Cu299      Cu300   2.373       .  S
C301        C578   1.478       .  S
C302        C546   1.478       .  S
C303        C530   1.484       .  S
C304        C554   1.474       .  S
O305       Cu313   2.008       .  S
O305        C315   1.276       .  A
O306       Cu313   1.987       .  S
O306        C316   1.277   1_455  A
O307       Cu313   2.018       .  S
O307        C317   1.278       .  A
O308       Cu313   2.023       .  S
O308        C318   1.280   1_455  A
O309       Cu314   2.011       .  S
O309        C318   1.278       .  A
O310       Cu314   1.993       .  S
O310        C317   1.277   1_655  A
O311       Cu314   2.015       .  S
O311        C316   1.278       .  A
O312       Cu314   2.020       .  S
O312        C315   1.280   1_655  A
Cu313      Cu314   2.373   1_455  S
C315        C513   1.477       .  S
C316        C506   1.472       .  S
C317        C509   1.474       .  S
C318        C517   1.481       .  S
C319        C320   1.525       .  S
C319        C325   1.541   1_655  S
C319        C323   1.539   1_655  S
C319        C497   1.516       .  S
C320        H327   1.088       .  S
C320        C321   1.360       .  D
C321        C322   1.542       .  S
C321        C586   1.474       .  S
C322        C326   1.543   1_655  S
C322        C324   1.530   1_655  S
C322        H328   1.111   1_655  S
C323        H329   1.086       .  S
C323        C324   1.362       .  D
C324        C565   1.473       .  S
C325        H330   1.084       .  S
C325        C326   1.375       .  D
C326        C501   1.479       .  S
C331        C332   1.552       .  S
C331        C337   1.534       .  S
C331        C335   1.525   1_455  S
C331        C514   1.523   1_455  S
C332        H339   1.081       .  S
C332        C333   1.373       .  D
C333        C334   1.532       .  S
C333        C630   1.489       .  S
C334        C338   1.545       .  S
C334        C336   1.535   1_455  S
C334        H340   1.112       .  S
C335        H341   1.087       .  S
C335        C336   1.366       .  D
C336        C714   1.487       .  S
C337        H342   1.084       .  S
C337        C338   1.368       .  D
C338        C502   1.479       .  S
O343       Cu351   2.012       .  S
O343        C353   1.279   1_455  A
O344       Cu351   2.022       .  S
O344        C354   1.279   1_455  A
O345       Cu351   1.999       .  S
O345        C355   1.275   1_455  A
O346       Cu351   1.972       .  S
O346        C356   1.276   1_455  A
O347       Cu352   2.015       .  S
O347        C356   1.277       .  A
O348       Cu352   2.018       .  S
O348        C355   1.281       .  A
O349       Cu352   2.018       .  S
O349        C354   1.277       .  A
O350       Cu352   1.996       .  S
O350        C353   1.275       .  A
Cu351      Cu352   2.374   1_455  S
C353        C510   1.469       .  S
C354        C493   1.475       .  S
C355        C498   1.477   1_655  S
C356        C490   1.470       .  S
C357        C358   1.526       .  S
C357        C363   1.538       .  S
C357        C361   1.532       .  S
C357        C481   1.513       .  S
C358        H365   1.087       .  S
C358        C359   1.364       .  D
C359        C360   1.550       .  S
C359        C722   1.485       .  S
C360        C364   1.550   1_655  S
C360        C362   1.543   1_655  S
C360        H366   1.110       .  S
C361        H367   1.087   1_655  S
C361        C362   1.360   1_655  D
C362        C625   1.483       .  S
C363        H368   1.080   1_655  S
C363        C364   1.371   1_655  D
C364        C485   1.483       .  S
C369        C370   1.527   1_655  S
C369        C375   1.545   1_655  S
C369        C373   1.532       .  S
C369        C494   1.520       .  S
C370        H377   1.087       .  S
C370        C371   1.356       .  D
C371        C372   1.537       .  S
C371        C542   1.471       .  S
C372        C376   1.550       .  S
C372        C374   1.540   1_455  S
C372        H378   1.110       .  S
C373        H379   1.085       .  S
C373        C374   1.371       .  D
C374        C522   1.495       .  S
C375        H380   1.077       .  S
C375        C376   1.377       .  D
C376        C486   1.492       .  S
O381       Cu389   1.976       .  S
O381        C391   1.273   1_455  A
O382       Cu389   1.992       .  S
O382        C392   1.276   1_455  A
O383       Cu389   2.008       .  S
O383        C393   1.277   1_455  A
O384       Cu389   1.999       .  S
O384        C394   1.278   1_455  A
O385       Cu390   2.005       .  S
O385        C394   1.276       .  A
O386       Cu390   2.008       .  S
O386        C393   1.278       .  A
O387       Cu390   2.024       .  S
O387        C392   1.279       .  A
O388       Cu390   2.012       .  S
O388        C391   1.278       .  A
Cu389      Cu390   2.376   1_455  S
C391        C489   1.460       .  S
C392        C477   1.476       .  S
C393        C482   1.475       .  S
C394        C474   1.471       .  S
C395        C396   1.525       .  S
C395        C401   1.523   1_455  S
C395        C399   1.532   1_455  S
C395        C465   1.515       .  S
C396        H403   1.087       .  S
C396        C397   1.363       .  D
C397        C398   1.556       .  S
C397        C562   1.488       .  S
C398        C402   1.558   1_455  S
C398        C400   1.546   1_455  S
C398        H404   1.110       .  S
C399        H405   1.086       .  S
C399        C400   1.375       .  D
C400        C594   1.494       .  S
C401        H406   1.087       .  S
C401        C402   1.364       .  D
C402        C469   1.486       .  S
C407        C408   1.534       .  S
C407        C413   1.531       .  S
C407        C411   1.529   1_655  S
C407        C518   1.528       .  S
C408        H415   1.082       .  S
C408        C409   1.366       .  D
C409        C410   1.553       .  S
C409        C674   1.490       .  S
C410        C414   1.550       .  S
C410        C412   1.536   1_655  S
C410        H416   1.110       .  S
C411        H417   1.086       .  S
C411        C412   1.370       .  D
C412        C654   1.483       .  S
C413        H418   1.087       .  S
C413        C414   1.372       .  D
C414        C470   1.493       .  S
C419        C420   1.524   1_455  S
C419        C425   1.528   1_455  S
C419        C423   1.522       .  S
C419        C457   1.510       .  S
C420        H427   1.087       .  S
C420        C421   1.364       .  D
C421        C422   1.558   1_655  S
C421        C526   1.487       .  S
C422        C426   1.555   1_455  S
C422        C424   1.553       .  S
C422        H428   1.110       .  S
C423        H429   1.087       .  S
C423        C424   1.362       .  D
C424        C538   1.478       .  S
C425        H430   1.087       .  S
C425        C426   1.367       .  D
C426        C461   1.482       .  S
C431        C432   1.526       .  S
C431        C437   1.528       .  S
C431        C435   1.537   1_455  S
C431        C478   1.516       .  S
C432        H439   1.088       .  S
C432        C433   1.361       .  D
C433        C434   1.548       .  S
C433        C650   1.479       .  S
C434        C438   1.552       .  S
C434        C436   1.539   1_455  S
C434        H440   1.110       .  S
C435        H441   1.083       .  S
C435        C436   1.371       .  D
C436        C678   1.482       .  S
C437        H442   1.087       .  S
C437        C438   1.369       .  D
C438        C462   1.490       .  S
O443       Cu451   2.007       .  S
O443        C453   1.278       .  A
O444       Cu451   2.009       .  S
O444        C454   1.277       .  A
O445       Cu451   2.019       .  S
O445        C455   1.279       .  A
O446       Cu451   2.007       .  S
O446        C456   1.278       .  A
O447       Cu452   2.000       .  S
O447        C456   1.276   1_455  A
O448       Cu452   2.007       .  S
O448        C455   1.278   1_455  A
O449       Cu452   2.002       .  S
O449        C454   1.278   1_455  A
O450       Cu452   1.995       .  S
O450        C453   1.276   1_455  A
Cu451      Cu452   2.376   1_655  S
C453        C505   1.467   1_655  S
C454        C458   1.474       .  S
C455        C466   1.480       .  S
C456        C473   1.469   1_655  S
C457        H459   1.087       .  S
C457        C458   1.343   1_455  D
C458        H460   1.087       .  S
C461        H463   1.088       .  S
C461        C462   1.348   1_655  D
C462        H464   1.086       .  S
C465        H467   1.087       .  S
C465        C466   1.346   1_455  D
C466        H468   1.087       .  S
C469        H471   1.088       .  S
C469        C470   1.343       .  D
C470        H472   1.086   1_655  S
C473        H475   1.087       .  S
C473        C474   1.342   1_455  D
C474        H476   1.087       .  S
C477        H479   1.081       .  S
C477        C478   1.349   1_655  D
C478        H480   1.088       .  S
C481        H483   1.087       .  S
C481        C482   1.346       .  D
C482        H484   1.087   1_655  S
C485        H487   1.087       .  S
C485        C486   1.351       .  D
C486        H488   1.087       .  S
C489        H491   1.087   1_655  S
C489        C490   1.341       .  D
C490        H492   1.086       .  S
C493        H495   1.086       .  S
C493        C494   1.354       .  D
C494        H496   1.087       .  S
C497        H499   1.087       .  S
C497        C498   1.346   1_655  D
C498        H500   1.086       .  S
C501        H503   1.086       .  S
C501        C502   1.344       .  D
C502        H504   1.086       .  S
C505        H507   1.087       .  S
C505        C506   1.343   1_455  D
C506        H508   1.087       .  S
C509        H511   1.087       .  S
C509        C510   1.343   1_455  D
C510        H512   1.087       .  S
C513        H515   1.081       .  S
C513        C514   1.348   1_455  D
C514        H516   1.088       .  S
C517        H519   1.080       .  S
C517        C518   1.350       .  D
C518        H520   1.087   1_655  S
C521        H523   1.086       .  S
C521        C522   1.343       .  D
C522        H524   1.086       .  S
C525        H527   1.085       .  S
C525        C526   1.346       .  D
C526        H528   1.087       .  S
C529        H531   1.087       .  S
C529        C530   1.351       .  D
C530        H532   1.083       .  S
C533        H535   1.088   1_565  S
C533        C534   1.346       .  D
C534        H536   1.086       .  S
C537        H539   1.086       .  S
C537        C538   1.338       .  D
C538        H540   1.089       .  S
C541        H543   1.085       .  S
C541        C542   1.339       .  D
C542        H544   1.086       .  S
C545        H547   1.087   1_565  S
C545        C546   1.340       .  D
C546        H548   1.087       .  S
C549        H551   1.085   1_565  S
C549        C550   1.344       .  D
C550        H552   1.087       .  S
C553        H555   1.086       .  S
C553        C554   1.342       .  D
C554        H556   1.087   1_565  S
C557        H559   1.087   1_565  S
C557        C558   1.342       .  D
C558        H560   1.087       .  S
C561        H563   1.086       .  S
C561        C562   1.344       .  D
C562        H564   1.088       .  S
C565        H567   1.085       .  S
C565        C566   1.349       .  D
C566        H568   1.085       .  S
C569        H571   1.088       .  S
C569        C570   1.342   1_565  D
C570        H572   1.086       .  S
C573        H575   1.088       .  S
C573        C574   1.349       .  D
C574        H576   1.085       .  S
C577        H579   1.087   1_565  S
C577        C578   1.340       .  D
C578        H580   1.087       .  S
C581        H583   1.086   1_565  S
C581        C582   1.347       .  D
C582        H584   1.087       .  S
C585        H587   1.086       .  S
C585        C586   1.341       .  D
C586        H588   1.088       .  S
C589        H591   1.086       .  S
C589        C590   1.347       .  D
C590        H592   1.087   1_565  S
C593        H595   1.087       .  S
C593        C594   1.345       .  D
C594        H596   1.085       .  S
C597        H599   1.085       .  S
C597        C598   1.346       .  D
C598        H600   1.086       .  S
C601        H603   1.086   1_565  S
C601        C602   1.346       .  D
C602        H604   1.087       .  S
C605        H607   1.087   1_565  S
C605        C606   1.346       .  D
C606        H608   1.087       .  S
C609        H611   1.086   1_565  S
C609        C610   1.347       .  D
C610        H612   1.087       .  S
C613        H615   1.087       .  S
C613        C614   1.345       .  D
C614        H616   1.087   1_565  S
C617        H619   1.085       .  S
C617        C618   1.348       .  D
C618        H620   1.086       .  S
C621        H623   1.088       .  S
C621        C622   1.342       .  D
C622        H624   1.086       .  S
C625        H627   1.088       .  S
C625        C626   1.347       .  D
C626        H628   1.084       .  S
C629        H631   1.085       .  S
C629        C630   1.342       .  D
C630        H632   1.084       .  S
C633        H635   1.087       .  S
C633        C634   1.341       .  D
C634        H636   1.087   1_554  S
C637        H639   1.087       .  S
C637        C638   1.350       .  D
C638        H640   1.085   1_554  S
C641        H643   1.086       .  S
C641        C642   1.338       .  D
C642        H644   1.088       .  S
C645        H647   1.086       .  S
C645        C646   1.347       .  D
C646        H648   1.086       .  S
C649        H651   1.086       .  S
C649        C650   1.344       .  D
C650        H652   1.087       .  S
C653        H655   1.086       .  S
C653        C654   1.341       .  D
C654        H656   1.086       .  S
C657        H659   1.086       .  S
C657        C658   1.343   1_554  D
C658        H660   1.087       .  S
C661        H663   1.086       .  S
C661        C662   1.340   1_556  D
C662        H664   1.088       .  S
C665        H667   1.087   1_554  S
C665        C666   1.346       .  D
C666        H668   1.086       .  S
C669        H671   1.087       .  S
C669        C670   1.348   1_556  D
C670        H672   1.087       .  S
C673        H675   1.085       .  S
C673        C674   1.346       .  D
C674        H676   1.087       .  S
C677        H679   1.088       .  S
C677        C678   1.341       .  D
C678        H680   1.086       .  S
C681        H683   1.087       .  S
C681        C682   1.348       .  D
C682        H684   1.085       .  S
C685        H687   1.088       .  S
C685        C686   1.335       .  D
C686        H688   1.087       .  S
C689        H691   1.087       .  S
C689        C690   1.341   1_556  D
C690        H692   1.087       .  S
C693        H695   1.085   1_554  S
C693        C694   1.347       .  D
C694        H696   1.087       .  S
C697        H699   1.087       .  S
C697        C698   1.341       .  D
C698        H700   1.087   1_554  S
C701        H703   1.087       .  S
C701        C702   1.342   1_556  D
C702        H704   1.087       .  S
C705        H707   1.083       .  S
C705        C706   1.350       .  D
C706        H708   1.084       .  S
C709        H711   1.085       .  S
C709        C710   1.345       .  D
C710        H712   1.086       .  S
C713        H715   1.087       .  S
C713        C714   1.344       .  D
C714        H716   1.085       .  S
C717        H719   1.087       .  S
C717        C718   1.348       .  D
C718        H720   1.087   1_556  S
C721        H723   1.085       .  S
C721        C722   1.345       .  D
C722        H724   1.086       .  S
C725        H727   1.087       .  S
C725        C726   1.355       .  D
C726        H728   1.086       .  S
C729        H731   1.086       .  S
C729        C730   1.341       .  D
C730        H732   1.087   1_554  S
C733        H735   1.086       .  S
C733        C734   1.347       .  D
C734        H736   1.087   1_554  S
C737        H739   1.087       .  S
C737        C738   1.349       .  D
C738        H740   1.086   1_554  S
C741        H743   1.086       .  S
C741        C742   1.352       .  D
C742        H744   1.088       .  S
