geometry optimzed in LAMMPS
_audit_creation_date              2020-11-30 
_audit_creation_method            'lammps2cif' 
_symmetry_space_group_name_H-M    'P1' 
_symmetry_Int_Tables_number       1 
_symmetry_cell_setting            triclinic 
loop_ 
_symmetry_equiv_pos_as_xyz 
  x,y,z 
_cell_length_a                    42.60907008 
_cell_length_b                    42.684988940830095 
_cell_length_c                    38.372176297017226 
_cell_angle_alpha                 90.11701569748156 
_cell_angle_beta                  90.29308138680392 
_cell_angle_gamma                 90.71244278965341 
loop_ 
_atom_site_label 
_atom_site_type_symbol 
_atom_site_fract_x 
_atom_site_fract_y 
_atom_site_fract_z 
_atom_site_charge 
C1          C  0.50237332  0.40368562  0.42077568     0.43300
N2          N  0.01527515  0.43386061  0.46364866     0.02200
C3          C  0.41420152  0.02198387  0.06365335    -0.05600
H4          H  0.40938877  0.04459056  0.43120654     0.07700
C5          C  0.02369011  0.08321863  0.43977089    -0.06000
Co6        Co  0.45875576  0.45624762  0.00170857     0.74200
N7          N  0.43383051  0.01114745  0.46298634    -0.25200
Co8        Co  0.45747806  0.03726926  0.50102951     0.74100
C9          C  0.49531392  0.09416674  0.42218317     0.42300
N10         N  0.06385203  0.01532741  0.46399195     0.01900
N11         N  0.48255227  0.06211677  0.46314830     0.02000
N12         N  0.41604062  0.46908782  0.06467630    -0.46000
H13         H  0.44973083  0.40792921  0.43374255     0.07700
N14         N  0.43420598  0.48024991  0.46323165     0.02200
N15         N  0.48217042  0.06213379  0.03966998     0.02000
C16         C  0.99453009  0.09336948  0.08193463     0.43600
N17         N  0.06440424  0.48442425  0.46432447    -0.24600
C18         C  0.47394668  0.41421300  0.06489572    -0.05500
N19         N  0.02703569  0.41667437  0.43815580    -0.45700
N20         N  0.47014452  0.07981647  0.06457200    -0.46000
C21         C  0.00220219  0.40359167  0.08285079     0.43400
N22         N  0.43388760  0.48090568  0.03956594     0.02200
N23         N  0.06448290  0.48451639  0.03978633    -0.24600
N24         N  0.48434459  0.43279865  0.46419661    -0.25100
N25         N  0.06364458  0.01537904  0.04043172     0.01900
H26         H  0.09087788  0.45071500  0.06859868     0.07800
H27         H  0.04732077  0.08926226  0.06898490     0.07800
N28         N  0.43325602  0.01176715  0.03860668    -0.25200
N29         N  0.01347724  0.06335972  0.46424228    -0.24800
N30         N  0.01525221  0.43398739  0.04041033     0.02200
C31         C  0.40384525  0.49159732  0.42045324     0.43600
C32         C  0.08351115  0.47464817  0.43902635    -0.06100
N33         N  0.01310131  0.06321641  0.03947318    -0.24800
H34         H  0.04793388  0.09016287  0.43622967     0.07800
N35         N  0.41644827  0.46759831  0.43836696    -0.46000
H36         H  0.08955228  0.45051422  0.43412915     0.07800
C37         C  0.09560178  0.00345132  0.08187648     0.43500
C38         C  0.47405515  0.41411791  0.43847901    -0.05500
Co39       Co  0.04032914  0.45863913  0.00204679     0.73800
N40         N  0.08182259  0.02755739  0.43924238    -0.45700
C41         C  0.40305424  0.99369865  0.08134746     0.43700
N42         N  0.02693508  0.41661194  0.06588243    -0.45700
Co43       Co  0.03895003  0.03977223  0.50205641     0.73900
C44         C  0.02307049  0.08258945  0.06471518    -0.06100
C45         C  0.41519760  0.02054534  0.43692456    -0.05600
N46         N  0.48430806  0.43305845  0.03957725    -0.25100
N47         N  0.47073712  0.08021223  0.43843104    -0.45900
H48         H  0.40822959  0.04621203  0.06803220     0.07700
C49         C  0.08425991  0.47480373  0.06458701    -0.06000
Cl50       Cl  0.99889330  0.99798929  0.00172066    -0.49000
C51         C  0.09486680  0.50329139  0.42206069     0.43500
H52         H  0.44961000  0.40791627  0.06904690     0.07700
N53         N  0.08194347  0.02762871  0.06510028    -0.45700
N54         N  0.50031953  0.29619371  0.25243881    -0.35700
N55         N  0.49581926  0.24892154  0.19754296    -0.56300
N56         N  0.49151545  0.20056218  0.25127397    -0.35700
N57         N  0.49592190  0.24789932  0.30613924    -0.56300
C58         C  0.50755932  0.31393893  0.22430538     0.27900
C59         C  0.50763611  0.31339269  0.28110519     0.27900
C60         C  0.48534329  0.18297537  0.22255809     0.27900
C61         C  0.48543058  0.18245424  0.27948140     0.27900
C62         C  0.49754457  0.27453748  0.17696340     0.36500
C63         C  0.49261956  0.22382021  0.17623905     0.36500
C64         C  0.49860702  0.27307112  0.32740389     0.36500
C65         C  0.49388730  0.22238006  0.32681251     0.36500
C66         C  0.51939653  0.34274089  0.23529044    -0.21000
C67         C  0.51940358  0.34241344  0.27102871    -0.21000
C68         C  0.47544082  0.15329689  0.23268743    -0.21000
C69         C  0.47542537  0.15299263  0.26847661    -0.21000
C70         C  0.49504431  0.26566160  0.14227073    -0.22100
C71         C  0.49252634  0.23354670  0.14179056    -0.22100
C72         C  0.49791488  0.26353555  0.36188563    -0.22100
C73         C  0.49569939  0.23144991  0.36151441    -0.22100
C74         C  0.50285498  0.30565018  0.18884346    -0.17400
C75         C  0.50322868  0.30439498  0.31629111    -0.17400
C76         C  0.48950433  0.19109736  0.31501689    -0.17400
C77         C  0.48902762  0.19230662  0.18729790    -0.17400
H78         H  0.52724739  0.36207252  0.21919464     0.15500
H79         H  0.52730534  0.36142966  0.28772952     0.15500
H80         H  0.46874830  0.13383546  0.21599454     0.15500
H81         H  0.46877376  0.13323972  0.28459130     0.15500
H82         H  0.49557029  0.28063671  0.11956083     0.13800
H83         H  0.49035943  0.21912291  0.11866512     0.13800
H84         H  0.49964891  0.27803503  0.38498903     0.13800
H85         H  0.49511191  0.21664656  0.38435018     0.13800
H86         H  0.48941179  0.27438952  0.25211970     0.27000
H87         H  0.50085920  0.22303398  0.25157293     0.27000
N88         N  0.29686496  0.49301224  0.25259854    -0.35700
N89         N  0.24825804  0.49714447  0.30626561    -0.56300
N90         N  0.20211404  0.50593069  0.25151713    -0.35700
N91         N  0.25080202  0.50181930  0.19793684    -0.56300
C92         C  0.31270000  0.48276199  0.28091701     0.27900
C93         C  0.31426787  0.48568604  0.22432221     0.27900
C94         C  0.18419030  0.51238034  0.27969459     0.27900
C95         C  0.18530867  0.51376026  0.22287470     0.27900
C96         C  0.27341046  0.49390036  0.32744767     0.36500
C97         C  0.22302797  0.50099769  0.32698716     0.36500
C98         C  0.27637592  0.49975203  0.17739162     0.36500
C99         C  0.22585493  0.50578067  0.17662022     0.36500
C100        C  0.34034391  0.46877068  0.27050377    -0.21000
C101        C  0.34138456  0.47072620  0.23484288    -0.21000
C102        C  0.15574414  0.52443123  0.26869819    -0.21000
C103        C  0.15641244  0.52521149  0.23294539    -0.21000
C104        C  0.26414339  0.49610014  0.36194314    -0.22100
C105        C  0.23218258  0.49960945  0.36166325    -0.22100
C106        C  0.26768150  0.50290884  0.14273916    -0.22100
C107        C  0.23563621  0.50602144  0.14220390    -0.22100
C108        C  0.30432859  0.48759283  0.31617082    -0.17400
C109        C  0.30707372  0.49289493  0.18923400    -0.17400
C110        C  0.19447245  0.50986253  0.18767251    -0.17400
C111        C  0.19209492  0.50701578  0.31515719    -0.17400
H112        H  0.35812805  0.45849805  0.28700482     0.15500
H113        H  0.36002530  0.46209408  0.21849312     0.15500
H114        H  0.13642811  0.53190661  0.28479262     0.15500
H115        H  0.13771409  0.53339775  0.21621269     0.15500
H116        H  0.27865373  0.49472016  0.38507736     0.13800
H117        H  0.21761429  0.50163382  0.38453234     0.13800
H118        H  0.28265598  0.50213522  0.12007481     0.13800
H119        H  0.22132394  0.50859686  0.11904751     0.13800
H120        H  0.27657666  0.50609652  0.25285171     0.27000
H121        H  0.22370286  0.49521309  0.25153620     0.27000
C122        C  0.11985442  0.50630470  0.11023894    -0.04400
C123        C  0.12366226  0.48173756  0.13471655    -0.01600
C124        C  0.14857204  0.48272425  0.15900831     0.03400
C125        C  0.16881968  0.50907539  0.16084380    -0.04400
C126        C  0.16364465  0.03475789  0.13862332    -0.01600
C127        C  0.13980741  0.03318502  0.11288120     0.03400
C128        C  0.10111003  0.45604447  0.13662820     0.38100
C129        C  0.18277104  0.06292023  0.14260537     0.38100
C130        C  0.13649296  0.05923178  0.08899539     0.36500
C131        C  0.15322843  0.45657270  0.18258224     0.36500
N132        N  0.13401744  0.08016950  0.07009956    -0.38300
N133        N  0.15691407  0.43581067  0.20145493    -0.38300
N134        N  0.19804786  0.08533669  0.14600269    -0.37800
N135        N  0.08318435  0.43552725  0.13859932    -0.37800
C136        C  0.11831587  0.50594349  0.39318627    -0.04400
C137        C  0.14074741  0.03080701  0.39248303    -0.01600
C138        C  0.16371429  0.03214403  0.36600064     0.03400
C139        C  0.16598879  0.50760329  0.34143078    -0.04400
C140        C  0.14327659  0.48321378  0.34160462    -0.01600
C141        C  0.11901431  0.48294022  0.36651280     0.03400
C142        C  0.14147628  0.05429384  0.41985173     0.38100
C143        C  0.14506771  0.45807101  0.31618107     0.38100
C144        C  0.09421411  0.45943890  0.36365297     0.36500
C145        C  0.18538495  0.05858048  0.36425056     0.36500
N146        N  0.07441059  0.44074644  0.36111760    -0.38300
N147        N  0.20277325  0.07957691  0.36279697    -0.38300
N148        N  0.14656573  0.43807761  0.29586484    -0.37800
N149        N  0.14239806  0.07297383  0.44175398    -0.37800
C150        C  0.33317631  0.49160184  0.16313540    -0.04400
C151        C  0.33523408  0.46634396  0.13953318    -0.01600
C152        C  0.35789304  0.46686505  0.11275737     0.03400
C153        C  0.38016782  0.49177195  0.11077240    -0.04400
C154        C  0.37987023  0.01549133  0.13671947    -0.01600
C155        C  0.35610074  0.01574000  0.16220593     0.03400
C156        C  0.31408149  0.43967694  0.14314680     0.38100
C157        C  0.40448155  0.03930798  0.13812138     0.38100
C158        C  0.35528536  0.04095155  0.18761064     0.36500
C159        C  0.35701842  0.44245353  0.08642663     0.36500
N160        N  0.35486323  0.06107785  0.20784771    -0.38300
N161        N  0.35601583  0.42303114  0.06534423    -0.38300
N162        N  0.42408396  0.05831105  0.13935872    -0.37800
N163        N  0.29732708  0.41835499  0.14643013    -0.37800
C164        C  0.37974054  0.48855208  0.39234747    -0.04400
C165        C  0.37944286  0.01036812  0.36467600    -0.01600
C166        C  0.35420954  0.01061551  0.34089258     0.03400
C167        C  0.33043810  0.48726331  0.34245316    -0.04400
C168        C  0.33237030  0.46349468  0.36786459    -0.01600
C169        C  0.35616721  0.46482030  0.39359070     0.03400
C170        C  0.40580030  0.03168333  0.35941346     0.38100
C171        C  0.30972526  0.43780825  0.36761984     0.38100
C172        C  0.35534023  0.44247970  0.42200654     0.36500
C173        C  0.35268274  0.03507369  0.31468734     0.36500
N174        N  0.35439920  0.42471925  0.44474101    -0.38300
N175        N  0.35136102  0.05443730  0.29368464    -0.38300
N176        N  0.29154445  0.41743590  0.36738954    -0.37800
N177        N  0.42690548  0.04846204  0.35474481    -0.37800
C178        C  0.48975636  0.16680563  0.16035117    -0.04400
C179        C  0.01660658  0.14800589  0.15769806    -0.01600
C180        C  0.01730878  0.12282414  0.13388646     0.03400
C181        C  0.49198290  0.11753240  0.11028836    -0.04400
C182        C  0.46469324  0.13616712  0.11361129    -0.01600
C183        C  0.46346421  0.16019248  0.13900458     0.03400
C184        C  0.04366274  0.15455847  0.17983455     0.38100
C185        C  0.43772135  0.13114402  0.09096702     0.38100
C186        C  0.43500529  0.17803916  0.14345949     0.36500
C187        C  0.04353510  0.10149807  0.13557500     0.36500
N188        N  0.41227261  0.19221037  0.14709398    -0.38300
N189        N  0.06450739  0.08458165  0.13742689    -0.38300
N190        N  0.41606791  0.12720484  0.07307463    -0.37800
N191        N  0.06521359  0.15983799  0.19745887    -0.37800
C192        C  0.49294363  0.11812225  0.39380054    -0.04400
C193        C  0.46686066  0.13848514  0.39195873    -0.01600
C194        C  0.46507548  0.16143678  0.36553264     0.03400
C195        C  0.48985751  0.16529995  0.34158966    -0.04400
C196        C  0.01567028  0.14494651  0.34308987    -0.01600
C197        C  0.01706193  0.12125197  0.36860201     0.03400
C198        C  0.44247486  0.13721978  0.41819509     0.38100
C199        C  0.04111756  0.14858797  0.31832465     0.38100
C200        C  0.04334546  0.09995195  0.36809595     0.36500
C201        C  0.43802496  0.18169362  0.36340392     0.36500
N202        N  0.06456273  0.08327837  0.36749667    -0.38300
N203        N  0.41665036  0.19810392  0.36178964    -0.38300
N204        N  0.06129198  0.15144344  0.29846032    -0.37800
N205        N  0.42306384  0.13649090  0.43918428    -0.37800
C206        C  0.50377389  0.33164639  0.16256521    -0.04400
C207        C  0.47908268  0.35334994  0.16128807    -0.01600
C208        C  0.47936573  0.37772791  0.13653128     0.03400
C209        C  0.50395946  0.38013584  0.11180006    -0.04400
C210        C  0.02944734  0.35911888  0.11426041    -0.01600
C211        C  0.02945511  0.33529081  0.13979646     0.03400
C212        C  0.45323424  0.35061077  0.18567968     0.38100
C213        C  0.05539041  0.36109822  0.09000834     0.38100
C214        C  0.05586337  0.31429328  0.14261073     0.36500
C215        C  0.45459155  0.40075730  0.13762784     0.36500
N216        N  0.07683644  0.29743617  0.14485769    -0.38300
N217        N  0.43465540  0.41891262  0.13874860    -0.38300
N218        N  0.07616298  0.36258400  0.07073647    -0.37800
N219        N  0.43273636  0.34856824  0.20525081    -0.37800
C220        C  0.50372004  0.33001558  0.34304735    -0.04400
C221        C  0.02989616  0.33470685  0.36519241    -0.01600
C222        C  0.02993545  0.35903328  0.39022092     0.03400
C223        C  0.50424076  0.37981519  0.39227281    -0.04400
C224        C  0.47932653  0.37654244  0.36782277    -0.01600
C225        C  0.47844497  0.35099617  0.34452794     0.03400
C226        C  0.05674516  0.31430982  0.36230289     0.38100
C227        C  0.45533937  0.40027512  0.36492365     0.38100
C228        C  0.45127288  0.34609765  0.32207164     0.36500
C229        C  0.05632839  0.36201446  0.41406939     0.36500
N230        N  0.42958079  0.34202637  0.30428467    -0.38300
N231        N  0.07746795  0.36432698  0.43300494    -0.38300
N232        N  0.43627654  0.41921519  0.36214579    -0.37800
N233        N  0.07811672  0.29797351  0.36007201    -0.37800
C234        C  0.50237686  0.40368873  0.92077251     0.43300
N235        N  0.01527411  0.43386226  0.96364622     0.02200
C236        C  0.41419962  0.02198393  0.56365325    -0.05600
H237        H  0.40938910  0.04459624  0.93120730     0.07700
C238        C  0.02369169  0.08322294  0.93977779    -0.06000
Co239      Co  0.45875699  0.45624668  0.50171315     0.74200
N240        N  0.43383130  0.01115123  0.96298476    -0.25200
Co241      Co  0.45747952  0.03727011  0.00102974     0.74100
C242        C  0.49531725  0.09417278  0.92218898     0.42300
N243        N  0.06385053  0.01532575  0.96399253     0.01900
N244        N  0.48255466  0.06211860  0.96315023     0.02000
N245        N  0.41604178  0.46908891  0.56467936    -0.46000
H246        H  0.44973301  0.40793439  0.93373023     0.07700
N247        N  0.43420657  0.48025375  0.96322864     0.02200
N248        N  0.48216810  0.06213631  0.53966780     0.02000
C249        C  0.99452637  0.09337507  0.58192858     0.43600
N250        N  0.06440394  0.48442343  0.96432444    -0.24600
C251        C  0.47395281  0.41421826  0.56490559    -0.05500
N252        N  0.02703625  0.41667641  0.93815425    -0.45700
N253        N  0.47014164  0.07982104  0.56456786    -0.46000
C254        C  0.00220916  0.40359734  0.58285753     0.43400
N255        N  0.43388902  0.48090618  0.53956901     0.02200
N256        N  0.06448437  0.48452033  0.53978516    -0.24600
N257        N  0.48434455  0.43280121  0.96419146    -0.25100
N258        N  0.06364613  0.01538251  0.54043066     0.01900
H259        H  0.09088296  0.45071972  0.56859383     0.07800
H260        H  0.04731731  0.08926948  0.56897823     0.07800
N261        N  0.43325566  0.01176712  0.53860807    -0.25200
N262        N  0.01347824  0.06336143  0.96424624    -0.24800
N263        N  0.01525597  0.43398981  0.54041340     0.02200
C264        C  0.40384567  0.49160362  0.92045181     0.43600
C265        C  0.08350929  0.47464766  0.93902456    -0.06100
N266        N  0.01309930  0.06321940  0.53946957    -0.24800
H267        H  0.04793561  0.09016748  0.93623897     0.07800
N268        N  0.41644836  0.46760356  0.93836371    -0.46000
H269        H  0.08954932  0.45051368  0.93412589     0.07800
C270        C  0.09560653  0.00345476  0.58187255     0.43500
C271        C  0.47405695  0.41412203  0.93847136    -0.05500
Co272      Co  0.04033066  0.45864056  0.50204756     0.73800
N273        N  0.08181942  0.02755549  0.93924133    -0.45700
C274        C  0.40305367  0.99369881  0.58134870     0.43700
N275        N  0.02694083  0.41661621  0.56588595    -0.45700
Co276      Co  0.03895013  0.03977050  0.00205841     0.73900
C277        C  0.02306732  0.08259505  0.56470964    -0.06100
C278        C  0.41519785  0.02055073  0.93692409    -0.05600
N279        N  0.48431176  0.43306074  0.53958297    -0.25100
N280        N  0.47074026  0.08021634  0.93843465    -0.45900
H281        H  0.40822574  0.04621187  0.56803013     0.07700
C282        C  0.08426340  0.47480820  0.56458379    -0.06000
Cl283      Cl  0.99889474  0.99798927  0.50172020    -0.49000
C284        C  0.09486408  0.50329111  0.92205833     0.43500
H285        H  0.44961659  0.40792282  0.56906275     0.07700
N286        N  0.08194645  0.02763237  0.56509812    -0.45700
N287        N  0.50032948  0.29619715  0.75243995    -0.35700
N288        N  0.49582083  0.24892583  0.69754409    -0.56300
N289        N  0.49150942  0.20056633  0.75127563    -0.35700
N290        N  0.49592758  0.24790340  0.80614083    -0.56300
C291        C  0.50757828  0.31393812  0.72430639     0.27900
C292        C  0.50765937  0.31339110  0.78110568     0.27900
C293        C  0.48535115  0.18297573  0.72255954     0.27900
C294        C  0.48543827  0.18245494  0.77948353     0.27900
C295        C  0.49753615  0.27454332  0.67696583     0.36500
C296        C  0.49260650  0.22382595  0.67624024     0.36500
C297        C  0.49860366  0.27307664  0.82740442     0.36500
C298        C  0.49387463  0.22238626  0.82681529     0.36500
C299        C  0.51943538  0.34273249  0.73529058    -0.21000
C300        C  0.51944528  0.34240450  0.77102899    -0.21000
C301        C  0.47547086  0.15329005  0.73268944    -0.21000
C302        C  0.47545531  0.15298596  0.76847857    -0.21000
C303        C  0.49501514  0.26567014  0.64227407    -0.22100
C304        C  0.49249416  0.23355521  0.64179266    -0.22100
C305        C  0.49788759  0.26354448  0.86188661    -0.22100
C306        C  0.49566608  0.23145917  0.86151746    -0.22100
C307        C  0.50286022  0.30565408  0.68884563    -0.17400
C308        C  0.50324140  0.30439792  0.81629097    -0.17400
C309        C  0.48950052  0.19110214  0.81501995    -0.17400
C310        C  0.48902413  0.19231067  0.68729843    -0.17400
H311        H  0.52729565  0.36205990  0.71919407     0.15500
H312        H  0.52735871  0.36141599  0.78772988     0.15500
H313        H  0.46879202  0.13382373  0.71599712     0.15500
H314        H  0.46881727  0.13322841  0.78459296     0.15500
H315        H  0.49553027  0.28064700  0.61956532     0.13800
H316        H  0.49031369  0.21913322  0.61866724     0.13800
H317        H  0.49961016  0.27804579  0.88498948     0.13800
H318        H  0.49506234  0.21665828  0.88435467     0.13800
H319        H  0.48940370  0.27440015  0.75212144     0.27000
H320        H  0.50083367  0.22304890  0.75157433     0.27000
N321        N  0.29686483  0.49301331  0.75259931    -0.35700
N322        N  0.24825686  0.49714622  0.80626525    -0.56300
N323        N  0.20211375  0.50592838  0.75151585    -0.35700
N324        N  0.25080297  0.50181666  0.69793697    -0.56300
C325        C  0.31269855  0.48276284  0.78091840     0.27900
C326        C  0.31426756  0.48568454  0.72432379     0.27900
C327        C  0.18418995  0.51238023  0.77969252     0.27900
C328        C  0.18530984  0.51375925  0.72287296     0.27900
C329        C  0.27340973  0.49390670  0.82744769     0.36500
C330        C  0.22302656  0.50100051  0.82698630     0.36500
C331        C  0.27637713  0.49974939  0.67739222     0.36500
C332        C  0.22585624  0.50577703  0.67661970     0.36500
C333        C  0.34034111  0.46876809  0.77050635    -0.21000
C334        C  0.34138263  0.47072244  0.73484543    -0.21000
C335        C  0.15574532  0.52443392  0.76869522    -0.21000
C336        C  0.15641459  0.52521369  0.73294252    -0.21000
C337        C  0.26414267  0.49611106  0.86194283    -0.22100
C338        C  0.23218146  0.49961767  0.86166255    -0.22100
C339        C  0.26768322  0.50290482  0.64273947    -0.22100
C340        C  0.23563791  0.50601690  0.64220353    -0.22100
C341        C  0.30432793  0.48759792  0.81617154    -0.17400
C342        C  0.30707475  0.49289347  0.68923554    -0.17400
C343        C  0.19447391  0.50986013  0.68767127    -0.17400
C344        C  0.19209319  0.50701581  0.81515530    -0.17400
H345        H  0.35812408  0.45849459  0.78700827     0.15500
H346        H  0.36002281  0.46208817  0.71849629     0.15500
H347        H  0.13642985  0.53191181  0.78478903     0.15500
H348        H  0.13771763  0.53340191  0.71620912     0.15500
H349        H  0.27865326  0.49473569  0.88507725     0.13800
H350        H  0.21761319  0.50164439  0.88453136     0.13800
H351        H  0.28265809  0.50213080  0.62007545     0.13800
H352        H  0.22132585  0.50859181  0.61904690     0.13800
H353        H  0.27657755  0.50610012  0.75285164     0.27000
H354        H  0.22370211  0.49520821  0.75153568     0.27000
C355        C  0.11985712  0.50630788  0.61023649    -0.04400
C356        C  0.12366460  0.48173904  0.63471230    -0.01600
C357        C  0.14857421  0.48272380  0.65900421     0.03400
C358        C  0.16882178  0.50907469  0.66084211    -0.04400
C359        C  0.16364909  0.03475745  0.63862277    -0.01600
C360        C  0.13981268  0.03318624  0.61287957     0.03400
C361        C  0.10111259  0.45604559  0.63662165     0.38100
C362        C  0.18277530  0.06291951  0.64260862     0.38100
C363        C  0.13650063  0.05923332  0.58899389     0.36500
C364        C  0.15323063  0.45657036  0.68257559     0.36500
N365        N  0.13402776  0.08017136  0.57009806    -0.38300
N366        N  0.15691622  0.43580659  0.70144591    -0.38300
N367        N  0.19805222  0.08533541  0.64601006    -0.37800
N368        N  0.08318733  0.43552782  0.63859067    -0.37800
C369        C  0.11831216  0.50594384  0.89318261    -0.04400
C370        C  0.14074060  0.03080655  0.89247732    -0.01600
C371        C  0.16370808  0.03214292  0.86599552     0.03400
C372        C  0.16598592  0.50760351  0.84142768    -0.04400
C373        C  0.14327341  0.48321416  0.84160095    -0.01600
C374        C  0.11901142  0.48293995  0.86650971     0.03400
C375        C  0.14146684  0.05429633  0.91984287     0.38100
C376        C  0.14506296  0.45807310  0.81617510     0.38100
C377        C  0.09421224  0.45943743  0.86365090     0.36500
C378        C  0.18537699  0.05858066  0.86424337     0.36500
N379        N  0.07440966  0.44074389  0.86111631    -0.38300
N380        N  0.20276393  0.07957807  0.86278783    -0.38300
N381        N  0.14655922  0.43808147  0.79585650    -0.37800
N382        N  0.14238626  0.07297901  0.94174234    -0.37800
C383        C  0.33317786  0.49160084  0.66313783    -0.04400
C384        C  0.33523727  0.46634211  0.63953711    -0.01600
C385        C  0.35789470  0.46686455  0.61275986     0.03400
C386        C  0.38016712  0.49177339  0.61077272    -0.04400
C387        C  0.37987013  0.01549124  0.63672071    -0.01600
C388        C  0.35610205  0.01573835  0.66220878     0.03400
C389        C  0.31408812  0.43967279  0.64315410     0.38100
C390        C  0.40447976  0.03930973  0.63812023     0.38100
C391        C  0.35528669  0.04094969  0.68761364     0.36500
C392        C  0.35702040  0.44245265  0.58642955     0.36500
N393        N  0.35486510  0.06107607  0.70785062    -0.38300
N394        N  0.35601783  0.42303007  0.56534736    -0.38300
N395        N  0.42408112  0.05831400  0.63935517    -0.37800
N396        N  0.29733663  0.41834897  0.64644062    -0.37800
C397        C  0.37973962  0.48855933  0.89234804    -0.04400
C398        C  0.37944395  0.01036989  0.86467279    -0.01600
C399        C  0.35421132  0.01061605  0.84088842     0.03400
C400        C  0.33043777  0.48726928  0.84245355    -0.04400
C401        C  0.33236622  0.46350479  0.86787017    -0.01600
C402        C  0.35616232  0.46483199  0.89359682     0.03400
C403        C  0.40580444  0.03168072  0.85940712     0.38100
C404        C  0.30971901  0.43782025  0.86762938     0.38100
C405        C  0.35533014  0.44249859  0.92201953     0.36500
C406        C  0.35268993  0.03506827  0.81467592     0.36500
N407        N  0.35438501  0.42474440  0.94475987    -0.38300
N408        N  0.35137322  0.05442707  0.79366732    -0.38300
N409        N  0.29153666  0.41744927  0.86740197    -0.37800
N410        N  0.42691224  0.04845565  0.85473640    -0.37800
C411        C  0.48975293  0.16681124  0.66034925    -0.04400
C412        C  0.01660626  0.14801214  0.65769080    -0.01600
C413        C  0.01730740  0.12283043  0.63387902     0.03400
C414        C  0.49197896  0.11753810  0.61028517    -0.04400
C415        C  0.46468422  0.13616415  0.61361926    -0.01600
C416        C  0.46345576  0.16018921  0.63901341     0.03400
C417        C  0.04366481  0.15456646  0.67982306     0.38100
C418        C  0.43770461  0.13112957  0.59098935     0.38100
C419        C  0.43499132  0.17802423  0.64348299     0.36500
C420        C  0.04353438  0.10150511  0.63556567     0.36500
N421        N  0.41225409  0.19218560  0.64713019    -0.38300
N422        N  0.06450669  0.08458862  0.63741643    -0.38300
N423        N  0.41604431  0.12718098  0.57310959    -0.37800
N424        N  0.06521752  0.15984650  0.69744437    -0.37800
C425        C  0.49294683  0.11812948  0.89380683    -0.04400
C426        C  0.46685623  0.13848251  0.89195585    -0.01600
C427        C  0.46506887  0.16143272  0.86552822     0.03400
C428        C  0.48985675  0.16530646  0.84159476    -0.04400
C429        C  0.01567471  0.14495901  0.84310215    -0.01600
C430        C  0.01706737  0.12126478  0.86861448     0.03400
C431        C  0.44246346  0.13720856  0.91818385     0.38100
C432        C  0.04112648  0.14860762  0.81834375     0.38100
C433        C  0.04335545  0.09997033  0.86811222     0.36500
C434        C  0.43800967  0.18167719  0.86338816     0.36500
N435        N  0.06457654  0.08330148  0.86751525    -0.38300
N436        N  0.41662770  0.19807735  0.86176507    -0.38300
N437        N  0.06130461  0.15146899  0.79848501    -0.37800
N438        N  0.42304675  0.13647312  0.93916636    -0.37800
C439        C  0.50378141  0.33165203  0.66256943    -0.04400
C440        C  0.47910097  0.35336874  0.66130654    -0.01600
C441        C  0.47938506  0.37774623  0.63654913     0.03400
C442        C  0.50396970  0.38014260  0.61180616    -0.04400
C443        C  0.02945056  0.35911688  0.61425683    -0.01600
C444        C  0.02945766  0.33528715  0.63979097     0.03400
C445        C  0.45326282  0.35064396  0.68571320     0.38100
C446        C  0.05538780  0.36109042  0.58999660     0.38100
C447        C  0.05586050  0.31428193  0.64259564     0.36500
C448        C  0.45462139  0.40078658  0.63765492     0.36500
N449        N  0.07682931  0.29741883  0.64483520    -0.38300
N450        N  0.43469402  0.41895114  0.63878189    -0.38300
N451        N  0.07615558  0.36257170  0.57071803    -0.37800
N452        N  0.43277338  0.34861352  0.70529657    -0.37800
C453        C  0.50373226  0.33002052  0.84304444    -0.04400
C454        C  0.02989990  0.33470311  0.86520203    -0.01600
C455        C  0.02993545  0.35902862  0.89023141     0.03400
C456        C  0.50424724  0.37981707  0.89227245    -0.04400
C457        C  0.47934359  0.37655500  0.86780807    -0.01600
C458        C  0.47846492  0.35101144  0.84450970     0.03400
C459        C  0.05674490  0.31429939  0.86232490     0.38100
C460        C  0.45536330  0.40029391  0.86490184     0.38100
C461        C  0.45130327  0.34612576  0.82203459     0.36500
C462        C  0.05631800  0.36200036  0.91409551     0.36500
N463        N  0.42961992  0.34206456  0.80423183    -0.38300
N464        N  0.07744867  0.36430528  0.93304432    -0.38300
N465        N  0.43630569  0.41923862  0.86211904    -0.37800
N466        N  0.07811353  0.29795811  0.86010425    -0.37800
C467        C  0.50237221  0.90368563  0.42077566     0.43300
N468        N  0.01527531  0.93386119  0.46364826     0.02200
C469        C  0.41420182  0.52198391  0.06365392    -0.05600
H470        H  0.40938857  0.54459043  0.43120612     0.07700
C471        C  0.02368910  0.58321786  0.43977076    -0.06000
Co472      Co  0.45875541  0.95624739  0.00170822     0.74200
N473        N  0.43383063  0.51114742  0.46298575    -0.25200
Co474      Co  0.45747815  0.53726944  0.50102863     0.74100
C475        C  0.49531343  0.59416671  0.42218193     0.42300
N476        N  0.06385131  0.51532711  0.46399197     0.01900
N477        N  0.48255228  0.56211673  0.46314723     0.02000
N478        N  0.41604015  0.96908777  0.06467584    -0.46000
H479        H  0.44972989  0.90792933  0.43374307     0.07700
N480        N  0.43420585  0.98024994  0.46323205     0.02200
N481        N  0.48217012  0.56213415  0.03967012     0.02000
C482        C  0.99453006  0.59336721  0.08193629     0.43600
N483        N  0.06440485  0.98442455  0.46432446    -0.24600
C484        C  0.47394630  0.91421304  0.06489554    -0.05500
N485        N  0.02703567  0.91667484  0.43815536    -0.45700
N486        N  0.47014393  0.57981681  0.06457195    -0.46000
C487        C  0.00220046  0.90359234  0.08285226     0.43400
N488        N  0.43388744  0.98090554  0.03956572     0.02200
N489        N  0.06448194  0.98451697  0.03978703    -0.24600
N490        N  0.48434405  0.93279864  0.46419668    -0.25100
N491        N  0.06364521  0.51537844  0.04043151     0.01900
H492        H  0.09087634  0.95071564  0.06860005     0.07800
H493        H  0.04732078  0.58926032  0.06898685     0.07800
N494        N  0.43325606  0.51176728  0.03860691    -0.25200
N495        N  0.01347624  0.56335910  0.46424231    -0.24800
N496        N  0.01525082  0.93398830  0.04041194     0.02200
C497        C  0.40384554  0.99159747  0.42045333     0.43600
C498        C  0.08351189  0.97464844  0.43902650    -0.06100
N499        N  0.01310146  0.56321519  0.03947402    -0.24800
H500        H  0.04793286  0.59016205  0.43622933     0.07800
N501        N  0.41644844  0.96759842  0.43836706    -0.46000
H502        H  0.08955303  0.95051448  0.43412940     0.07800
C503        C  0.09560285  0.50345057  0.08187578     0.43500
C504        C  0.47405427  0.91411797  0.43847923    -0.05500
Co505      Co  0.04032798  0.95863939  0.00204792     0.73800
N506        N  0.08182171  0.52755711  0.43924226    -0.45700
C507        C  0.40305479  0.49369862  0.08134813     0.43700
N508        N  0.02693344  0.91661263  0.06588400    -0.45700
Co509      Co  0.03894912  0.53977186  0.50205651     0.73900
C510        C  0.02307053  0.58258761  0.06471668    -0.06100
C511        C  0.41519750  0.52054523  0.43692413    -0.05600
N512        N  0.48430770  0.93305812  0.03957676    -0.25100
N513        N  0.47073688  0.58021204  0.43843000    -0.45900
H514        H  0.40823001  0.54621206  0.06803309     0.07700
C515        C  0.08425868  0.97480440  0.06458798    -0.06000
Cl516      Cl  0.99889401  0.49798867  0.00172011    -0.49000
C517        C  0.09486769  0.00329165  0.42206089     0.43500
H518        H  0.44960959  0.90791668  0.06904716     0.07700
N519        N  0.08194415  0.52762800  0.06510008    -0.45700
N520        N  0.50031724  0.79619443  0.25243856    -0.35700
N521        N  0.49581654  0.74892233  0.19754267    -0.56300
N522        N  0.49151232  0.70056291  0.25127358    -0.35700
N523        N  0.49591920  0.74790000  0.30613889    -0.56300
C524        C  0.50755740  0.81393946  0.22430518     0.27900
C525        C  0.50763435  0.81339314  0.28110491     0.27900
C526        C  0.48534079  0.68297610  0.22255769     0.27900
C527        C  0.48542797  0.68245493  0.27948097     0.27900
C528        C  0.49754169  0.77453831  0.17696319     0.36500
C529        C  0.49261646  0.72382108  0.17623871     0.36500
C530        C  0.49860387  0.77307184  0.32740351     0.36500
C531        C  0.49388379  0.72238081  0.32681220     0.36500
C532        C  0.51939542  0.84274113  0.23529022    -0.21000
C533        C  0.51940259  0.84241362  0.27102848    -0.21000
C534        C  0.47543912  0.65329732  0.23268697    -0.21000
C535        C  0.47542358  0.65299304  0.26847613    -0.21000
C536        C  0.49504095  0.76566257  0.14227052    -0.22100
C537        C  0.49252280  0.73354767  0.14179026    -0.22100
C538        C  0.49791056  0.76353640  0.36188527    -0.22100
C539        C  0.49569488  0.73145077  0.36151411    -0.22100
C540        C  0.50285262  0.80565090  0.18884333    -0.17400
C541        C  0.50322645  0.80439556  0.31629076    -0.17400
C542        C  0.48950139  0.69109805  0.31501652    -0.17400
C543        C  0.48902486  0.69230746  0.18729750    -0.17400
H544        H  0.52724668  0.86207261  0.21919443     0.15500
H545        H  0.52730481  0.86142963  0.28772932     0.15500
H546        H  0.46874718  0.63383571  0.21599405     0.15500
H547        H  0.46877248  0.63323992  0.28459077     0.15500
H548        H  0.49556679  0.78063776  0.11956069     0.13800
H549        H  0.49035554  0.71912394  0.11866481     0.13800
H550        H  0.49964400  0.77803593  0.38498867     0.13800
H551        H  0.49510670  0.71664753  0.38434993     0.13800
H552        H  0.48940866  0.77439029  0.25211943     0.27000
H553        H  0.50085575  0.72303595  0.25157260     0.27000
N554        N  0.29686511  0.99301285  0.25259785    -0.35700
N555        N  0.24825886  0.99714526  0.30626541    -0.56300
N556        N  0.20211404  0.00593030  0.25151737    -0.35700
N557        N  0.25080132  0.00181881  0.19793658    -0.56300
C558        C  0.31270083  0.98276340  0.28091624     0.27900
C559        C  0.31426785  0.98568678  0.22432135     0.27900
C560        C  0.18419085  0.01238062  0.27969505     0.27900
C561        C  0.18530848  0.01376014  0.22287516     0.27900
C562        C  0.27341144  0.99390119  0.32744726     0.36500
C563        C  0.22302891  0.00099810  0.32698721     0.36500
C564        C  0.27637496  0.99975131  0.17739101     0.36500
C565        C  0.22585397  0.00577969  0.17662021     0.36500
C566        C  0.34034502  0.96877277  0.27050276    -0.21000
C567        C  0.34138513  0.97072789  0.23484183    -0.21000
C568        C  0.15574484  0.02443213  0.26869904    -0.21000
C569        C  0.15641269  0.02521216  0.23294622    -0.21000
C570        C  0.26414456  0.99610066  0.36194283    -0.22100
C571        C  0.23218372  0.99960975  0.36166322    -0.22100
C572        C  0.26768008  0.00290742  0.14273861    -0.22100
C573        C  0.23563479  0.00601985  0.14220374    -0.22100
C574        C  0.30432956  0.98759402  0.31617014    -0.17400
C575        C  0.30707300  0.99289489  0.18923310    -0.17400
C576        C  0.19447172  0.00986203  0.18767287    -0.17400
C577        C  0.19209578  0.00701607  0.31515753    -0.17400
H578        H  0.35812965  0.95850077  0.28700364     0.15500
H579        H  0.36002590  0.96209605  0.21849191     0.15500
H580        H  0.13642924  0.03190812  0.28479375     0.15500
H581        H  0.13771435  0.03339883  0.21621375     0.15500
H582        H  0.27865507  0.99472063  0.38507693     0.13800
H583        H  0.21761553  0.00163395  0.38453242     0.13800
H584        H  0.28265429  0.00213358  0.12007403     0.13800
H585        H  0.22132223  0.00859489  0.11904752     0.13800
H586        H  0.27657637  0.00609643  0.25285110     0.27000
H587        H  0.22370258  0.99521206  0.25153625     0.27000
C588        C  0.11985316  0.00630539  0.11023987    -0.04400
C589        C  0.12366085  0.98173814  0.13471738    -0.01600
C590        C  0.14857082  0.98272441  0.15900890     0.03400
C591        C  0.16881868  0.00907535  0.16084446    -0.04400
C592        C  0.16364553  0.53475774  0.13862243    -0.01600
C593        C  0.13980851  0.53318445  0.11288011     0.03400
C594        C  0.10110825  0.95604538  0.13662921     0.38100
C595        C  0.18277142  0.56292040  0.14260461     0.38100
C596        C  0.13649421  0.55923087  0.08899379     0.36500
C597        C  0.15322737  0.95657251  0.18258230     0.36500
N598        N  0.13401885  0.58016827  0.07009750    -0.38300
N599        N  0.15691325  0.93581016  0.20145450    -0.38300
N600        N  0.19804780  0.58533714  0.14600206    -0.37800
N601        N  0.08318224  0.93552846  0.13860046    -0.37800
C602        C  0.11831683  0.00594373  0.39318656    -0.04400
C603        C  0.14074673  0.53080652  0.39248301    -0.01600
C604        C  0.16371349  0.53214365  0.36600049     0.03400
C605        C  0.16598985  0.00760345  0.34143127    -0.04400
C606        C  0.14327797  0.98321367  0.34160539    -0.01600
C607        C  0.11901562  0.98294013  0.36651344     0.03400
C608        C  0.14147604  0.55429286  0.41985221     0.38100
C609        C  0.14506954  0.95807057  0.31618229     0.38100
C610        C  0.09421572  0.95943849  0.36365380     0.36500
C611        C  0.18538428  0.55858000  0.36425065     0.36500
N612        N  0.07441246  0.94074573  0.36111858    -0.38300
N613        N  0.20277267  0.57957637  0.36279730    -0.38300
N614        N  0.14656797  0.93807688  0.29586647    -0.37800
N615        N  0.14239816  0.57297241  0.44175492    -0.37800
C616        C  0.33317529  0.99160205  0.16313417    -0.04400
C617        C  0.33523318  0.96634412  0.13953204    -0.01600
C618        C  0.35789230  0.96686515  0.11275640     0.03400
C619        C  0.38016699  0.99177214  0.11077144    -0.04400
C620        C  0.37987148  0.51549084  0.13672078    -0.01600
C621        C  0.35610215  0.51573945  0.16220748     0.03400
C622        C  0.31408026  0.93967730  0.14314523     0.38100
C623        C  0.40448310  0.53930716  0.13812282     0.38100
C624        C  0.35528749  0.54095041  0.18761293     0.36500
C625        C  0.35701793  0.94245350  0.08642581     0.36500
N626        N  0.35486600  0.56107618  0.20785068    -0.38300
N627        N  0.35601553  0.92303099  0.06534352    -0.38300
N628        N  0.42408579  0.55830995  0.13936027    -0.37800
N629        N  0.29732542  0.91835561  0.14642807    -0.37800
C630        C  0.37974128  0.98855226  0.39234708    -0.04400
C631        C  0.37944206  0.51036750  0.36467598    -0.01600
C632        C  0.35420861  0.51061461  0.34089272     0.03400
C633        C  0.33043910  0.98726411  0.34245244    -0.04400
C634        C  0.33237140  0.96349492  0.36786321    -0.01600
C635        C  0.35616826  0.96482011  0.39358942     0.03400
C636        C  0.40579952  0.53168257  0.35941286     0.38100
C637        C  0.30972650  0.93780837  0.36761770     0.38100
C638        C  0.35534161  0.94247854  0.42200433     0.36500
C639        C  0.35268173  0.53507243  0.31468707     0.36500
N640        N  0.35440086  0.92471723  0.44473798    -0.38300
N641        N  0.35135988  0.55443575  0.29368406    -0.38300
N642        N  0.29154580  0.91743593  0.36738677    -0.37800
N643        N  0.42690466  0.54846121  0.35474368    -0.37800
C644        C  0.48975411  0.66680654  0.16035075    -0.04400
C645        C  0.01660664  0.64800359  0.15769970    -0.01600
C646        C  0.01730846  0.62282147  0.13388852     0.03400
C647        C  0.49198160  0.61753311  0.11028828    -0.04400
C648        C  0.46469137  0.63616700  0.11361147    -0.01600
C649        C  0.46346187  0.66019241  0.13900467     0.03400
C650        C  0.04366274  0.65455582  0.17983639     0.38100
C651        C  0.43771927  0.63114284  0.09096779     0.38100
C652        C  0.43500233  0.67803799  0.14346015     0.36500
C653        C  0.04353406  0.60149456  0.13557786     0.36500
N654        N  0.41226909  0.69220822  0.14709512    -0.38300
N655        N  0.06450574  0.58457744  0.13743033    -0.38300
N656        N  0.41606563  0.62720279  0.07307591    -0.37800
N657        N  0.06521358  0.65983516  0.19746078    -0.37800
C658        C  0.49294259  0.61812250  0.39379960    -0.04400
C659        C  0.46685914  0.63848484  0.39195807    -0.01600
C660        C  0.46507335  0.66143664  0.36553219     0.03400
C661        C  0.48985525  0.66530056  0.34158918    -0.04400
C662        C  0.01566960  0.64494584  0.34309024    -0.01600
C663        C  0.01706076  0.62125079  0.36860179     0.03400
C664        C  0.44247328  0.63721862  0.41819432     0.38100
C665        C  0.04111726  0.64858772  0.31832557     0.38100
C666        C  0.04334335  0.59994963  0.36809472     0.36500
C667        C  0.43802220  0.68169265  0.36340351     0.36500
N668        N  0.06455975  0.58327500  0.36749463    -0.38300
N669        N  0.41664704  0.69810222  0.36178925    -0.38300
N670        N  0.06129207  0.65144374  0.29846181    -0.37800
N671        N  0.42306216  0.63648901  0.43918337    -0.37800
C672        C  0.50377213  0.83164708  0.16256520    -0.04400
C673        C  0.47908155  0.85335135  0.16128821    -0.01600
C674        C  0.47936541  0.87772945  0.13653163     0.03400
C675        C  0.50395896  0.88013638  0.11180013    -0.04400
C676        C  0.02944684  0.85912039  0.11426245    -0.01600
C677        C  0.02945504  0.83529194  0.13979809     0.03400
C678        C  0.45323297  0.85061281  0.18567970     0.38100
C679        C  0.05539112  0.86110191  0.09001215     0.38100
C680        C  0.05586474  0.81429637  0.14261380     0.36500
C681        C  0.45459248  0.90076016  0.13762880     0.36500
N682        N  0.07683906  0.79744092  0.14486200    -0.38300
N683        N  0.43465746  0.91891668  0.13875006    -0.38300
N684        N  0.07616466  0.86258948  0.07074171    -0.37800
N685        N  0.43273492  0.84857080  0.20525068    -0.37800
C686        C  0.50371810  0.83001614  0.34304694    -0.04400
C687        C  0.02989618  0.83470735  0.36519183    -0.01600
C688        C  0.02993570  0.85903424  0.39021985     0.03400
C689        C  0.50423920  0.87981519  0.39227292    -0.04400
C690        C  0.47932525  0.87654330  0.36782238    -0.01600
C691        C  0.47844363  0.85099747  0.34452699     0.03400
C692        C  0.05674541  0.81431066  0.36230194     0.38100
C693        C  0.45533811  0.90027607  0.36492384     0.38100
C694        C  0.45127206  0.84610010  0.32206960     0.36500
C695        C  0.05632968  0.86201683  0.41406672     0.36500
N696        N  0.42958042  0.84202976  0.30428170    -0.38300
N697        N  0.07747010  0.86433056  0.43300091    -0.38300
N698        N  0.43627515  0.91921608  0.36214656    -0.37800
N699        N  0.07811709  0.79797452  0.36007082    -0.37800
C700        C  0.50237624  0.90368855  0.92077159     0.43300
N701        N  0.01527270  0.93386240  0.96364765     0.02200
C702        C  0.41419985  0.52198480  0.56365253    -0.05600
H703        H  0.40939005  0.54459622  0.93120663     0.07700
C704        C  0.02369184  0.58322336  0.93977872    -0.06000
Co705      Co  0.45875679  0.95624646  0.50171331     0.74200
N706        N  0.43383167  0.51115130  0.96298475    -0.25200
Co707      Co  0.45747953  0.53727032  0.00102987     0.74100
C708        C  0.49531732  0.59417339  0.92218942     0.42300
N709        N  0.06385115  0.51532628  0.96399242     0.01900
N710        N  0.48255468  0.56211897  0.96315043     0.02000
N711        N  0.41604170  0.96908800  0.56467938    -0.46000
H712        H  0.44973240  0.90793443  0.93372947     0.07700
N713        N  0.43420613  0.98025368  0.96322859     0.02200
N714        N  0.48216801  0.56213672  0.53966664     0.02000
C715        C  0.99452503  0.59337438  0.58192887     0.43600
N716        N  0.06440300  0.98442291  0.96432503    -0.24600
C717        C  0.47395272  0.91421747  0.56490512    -0.05500
N718        N  0.02703467  0.91667672  0.93815546    -0.45700
N719        N  0.47014130  0.57982121  0.56456670    -0.46000
C720        C  0.00220864  0.90359695  0.58285660     0.43400
N721        N  0.43388895  0.98090563  0.53956927     0.02200
N722        N  0.06448480  0.98452041  0.53978512    -0.24600
N723        N  0.48434404  0.93280092  0.96419085    -0.25100
N724        N  0.06364540  0.51538241  0.54043075     0.01900
H725        H  0.09088284  0.95071954  0.56859413     0.07800
H726        H  0.04731603  0.58926860  0.56897951     0.07800
N727        N  0.43325580  0.51176766  0.53860744    -0.25200
N728        N  0.01347843  0.56336156  0.96424691    -0.24800
N729        N  0.01525607  0.93399006  0.54041315     0.02200
C730        C  0.40384456  0.99160364  0.92045244     0.43600
C731        C  0.08350808  0.97464661  0.93902512    -0.06100
N732        N  0.01309818  0.56321891  0.53946980    -0.24800
H733        H  0.04793575  0.59016794  0.93623982     0.07800
N734        N  0.41644751  0.96760355  0.93836401    -0.46000
H735        H  0.08954776  0.95051250  0.93412669     0.07800
C736        C  0.09560611  0.50345496  0.58187248     0.43500
C737        C  0.47405637  0.91412191  0.93847060    -0.05500
Co738      Co  0.04033101  0.95864085  0.50204740     0.73800
N739        N  0.08182004  0.52755653  0.93924152    -0.45700
C740        C  0.40305385  0.49369996  0.58134844     0.43700
N741        N  0.02694056  0.91661603  0.56588557    -0.45700
Co742      Co  0.03895049  0.53977020  0.00205869     0.73900
C743        C  0.02306607  0.58259435  0.56471021    -0.06100
C744        C  0.41519865  0.52055073  0.93692366    -0.05600
N745        N  0.48431162  0.93306023  0.53958277    -0.25100
N746        N  0.47074032  0.58021675  0.93843486    -0.45900
H747        H  0.40822603  0.54621282  0.56802902     0.07700
C748        C  0.08426359  0.97480809  0.56458390    -0.06000
Cl749      Cl  0.99889407  0.49798869  0.50172031    -0.49000
C750        C  0.09486314  0.00328973  0.92205840     0.43500
H751        H  0.44961651  0.90792192  0.56906216     0.07700
N752        N  0.08194569  0.52763243  0.56509814    -0.45700
N753        N  0.50032885  0.79619641  0.75243920    -0.35700
N754        N  0.49581898  0.74892515  0.69754336    -0.56300
N755        N  0.49150667  0.70056577  0.75127496    -0.35700
N756        N  0.49592604  0.74790280  0.80614012    -0.56300
C757        C  0.50757776  0.81393736  0.72430564     0.27900
C758        C  0.50765817  0.81339058  0.78110498     0.27900
C759        C  0.48534764  0.68297532  0.72255894     0.27900
C760        C  0.48543565  0.68245441  0.77948291     0.27900
C761        C  0.49753542  0.77454250  0.67696503     0.36500
C762        C  0.49260399  0.72382532  0.67623958     0.36500
C763        C  0.49860298  0.77307595  0.82740374     0.36500
C764        C  0.49387366  0.72238557  0.82681452     0.36500
C765        C  0.51943432  0.84273193  0.73528989    -0.21000
C766        C  0.51944371  0.84240411  0.77102830    -0.21000
C767        C  0.47546697  0.65328979  0.73268892    -0.21000
C768        C  0.47545200  0.65298562  0.76847808    -0.21000
C769        C  0.49501440  0.76566930  0.64227327    -0.22100
C770        C  0.49249227  0.73355446  0.64179196    -0.22100
C771        C  0.49788806  0.76354365  0.86188589    -0.22100
C772        C  0.49566634  0.73145835  0.86151666    -0.22100
C773        C  0.50286020  0.80565316  0.68884479    -0.17400
C774        C  0.50324033  0.80439731  0.81629028    -0.17400
C775        C  0.48949886  0.69110150  0.81501920    -0.17400
C776        C  0.48902073  0.69231019  0.68729785    -0.17400
H777        H  0.52729453  0.86205939  0.71919342     0.15500
H778        H  0.52735668  0.86141579  0.78772920     0.15500
H779        H  0.46878766  0.63382360  0.71599664     0.15500
H780        H  0.46881399  0.63322813  0.78459257     0.15500
H781        H  0.49553020  0.78064606  0.61956446     0.13800
H782        H  0.49031151  0.71913246  0.61866657     0.13800
H783        H  0.49961155  0.77804487  0.88498877     0.13800
H784        H  0.49506329  0.71665737  0.88435382     0.13800
H785        H  0.48940353  0.77439937  0.75212068     0.27000
H786        H  0.50083141  0.72304791  0.75157356     0.27000
N787        N  0.29686478  0.99301190  0.75259965    -0.35700
N788        N  0.24825635  0.99714449  0.80626544    -0.56300
N789        N  0.20211364  0.00592645  0.75151597    -0.35700
N790        N  0.25080328  0.00181500  0.69793722    -0.56300
C791        C  0.31269818  0.98276133  0.78091886     0.27900
C792        C  0.31426750  0.98568263  0.72432428     0.27900
C793        C  0.18418943  0.01237765  0.77969254     0.27900
C794        C  0.18530982  0.01375716  0.72287299     0.27900
C795        C  0.27340924  0.99390550  0.82744790     0.36500
C796        C  0.22302601  0.00099862  0.82698647     0.36500
C797        C  0.27637757  0.99974807  0.67739261     0.36500
C798        C  0.22585672  0.00577590  0.67661987     0.36500
C799        C  0.34034056  0.96876603  0.77050711    -0.21000
C800        C  0.34138223  0.97072006  0.73484616    -0.21000
C801        C  0.15574460  0.02443072  0.76869505    -0.21000
C802        C  0.15641419  0.02521083  0.73294238    -0.21000
C803        C  0.26414218  0.99611003  0.86194303    -0.22100
C804        C  0.23218093  0.99961616  0.86166273    -0.22100
C805        C  0.26768392  0.00290427  0.64273988    -0.22100
C806        C  0.23563863  0.00601645  0.64220378    -0.22100
C807        C  0.30432745  0.98759681  0.81617185    -0.17400
C808        C  0.30707502  0.99289166  0.68923600    -0.17400
C809        C  0.19447429  0.00985866  0.68767131    -0.17400
C810        C  0.19209257  0.00701343  0.81515541    -0.17400
H811        H  0.35812326  0.95849234  0.78700924     0.15500
H812        H  0.36002231  0.96208534  0.71849716     0.15500
H813        H  0.13642882  0.03190806  0.78478871     0.15500
H814        H  0.13771717  0.03339878  0.71620889     0.15500
H815        H  0.27865280  0.99473499  0.88507746     0.13800
H816        H  0.21761264  0.00164280  0.88453154     0.13800
H817        H  0.28265895  0.00213065  0.62007596     0.13800
H818        H  0.22132676  0.00859180  0.61904708     0.13800
H819        H  0.27657772  0.00609914  0.75285187     0.27000
H820        H  0.22370231  0.99520690  0.75153586     0.27000
C821        C  0.11985760  0.00630739  0.61023648    -0.04400
C822        C  0.12366453  0.98173866  0.63471250    -0.01600
C823        C  0.14857440  0.98272285  0.65900407     0.03400
C824        C  0.16882236  0.00907345  0.66084193    -0.04400
C825        C  0.16364811  0.53475862  0.63862299    -0.01600
C826        C  0.13981157  0.53318718  0.61287993     0.03400
C827        C  0.10111157  0.95604608  0.63662256     0.38100
C828        C  0.18277407  0.56292085  0.64260874     0.38100
C829        C  0.13649868  0.55923457  0.58899480     0.36500
C830        C  0.15323068  0.95656916  0.68257515     0.36500
N831        N  0.13402507  0.58017288  0.57009946    -0.38300
N832        N  0.15691624  0.93580520  0.70144522    -0.38300
N833        N  0.19805081  0.58533689  0.64601009    -0.37800
N834        N  0.08318546  0.93552910  0.63859223    -0.37800
C835        C  0.11831144  0.00594197  0.89318281    -0.04400
C836        C  0.14074114  0.53080859  0.89247720    -0.01600
C837        C  0.16370865  0.53214512  0.86599544     0.03400
C838        C  0.16598527  0.00760123  0.84142783    -0.04400
C839        C  0.14327262  0.98321200  0.84160120    -0.01600
C840        C  0.11901062  0.98293796  0.86651001     0.03400
C841        C  0.14146727  0.55429827  0.91984285     0.38100
C842        C  0.14506186  0.95807102  0.81617522     0.38100
C843        C  0.09421126  0.95943565  0.86365124     0.36500
C844        C  0.18537765  0.55858279  0.86424352     0.36500
N845        N  0.07440851  0.94074229  0.86111658    -0.38300
N846        N  0.20276472  0.57958011  0.86278813    -0.38300
N847        N  0.14655784  0.93807952  0.79585643    -0.37800
N848        N  0.14238665  0.57298089  0.94174239    -0.37800
C849        C  0.33317824  0.99159889  0.66313844    -0.04400
C850        C  0.33523726  0.96634050  0.63953721    -0.01600
C851        C  0.35789469  0.96686304  0.61275996     0.03400
C852        C  0.38016724  0.99177178  0.61077315    -0.04400
C853        C  0.37986949  0.51549339  0.63671972    -0.01600
C854        C  0.35610128  0.51574063  0.66220768     0.03400
C855        C  0.31408769  0.93967144  0.64315359     0.38100
C856        C  0.40447858  0.53931244  0.63811877     0.38100
C857        C  0.35528542  0.54095239  0.68761200     0.36500
C858        C  0.35702045  0.94245125  0.58642952     0.36500
N859        N  0.35486340  0.56107910  0.70784856    -0.38300
N860        N  0.35601803  0.92302868  0.56534730    -0.38300
N861        N  0.42407941  0.55831727  0.63935344    -0.37800
N862        N  0.29733588  0.91834779  0.64643953    -0.37800
C863        C  0.37973850  0.98855929  0.89234877    -0.04400
C864        C  0.37944515  0.51036995  0.86467208    -0.01600
C865        C  0.35421242  0.51061639  0.84088780     0.03400
C866        C  0.33043712  0.98726851  0.84245391    -0.04400
C867        C  0.33236563  0.96350410  0.86787056    -0.01600
C868        C  0.35616138  0.96483176  0.89359754     0.03400
C869        C  0.40580581  0.53168056  0.85940638     0.38100
C870        C  0.30971870  0.93781931  0.86762954     0.38100
C871        C  0.35532886  0.94249874  0.92202060     0.36500
C872        C  0.35269160  0.53506829  0.81467488     0.36500
N873        N  0.35438330  0.92474485  0.94476120    -0.38300
N874        N  0.35137544  0.55442670  0.79366579    -0.38300
N875        N  0.29153649  0.91744820  0.86740184    -0.37800
N876        N  0.42691372  0.54845535  0.85473566    -0.37800
C877        C  0.48975004  0.66681073  0.66034885    -0.04400
C878        C  0.01660457  0.64800913  0.65769326    -0.01600
C879        C  0.01730502  0.62282742  0.63388135     0.03400
C880        C  0.49197775  0.61753829  0.61028419    -0.04400
C881        C  0.46468249  0.63616363  0.61361822    -0.01600
C882        C  0.46345329  0.66018853  0.63901247     0.03400
C883        C  0.04366240  0.65456107  0.67982741     0.38100
C884        C  0.43770308  0.63112849  0.59098815     0.38100
C885        C  0.43498858  0.67802323  0.64348149     0.36500
C886        C  0.04353003  0.60149977  0.63556952     0.36500
N887        N  0.41225109  0.69218431  0.64712811    -0.38300
N888        N  0.06450067  0.58458132  0.63742132    -0.38300
N889        N  0.41604293  0.62717936  0.57310829    -0.37800
N890        N  0.06521455  0.65983922  0.69745022    -0.37800
C891        C  0.49294681  0.61813002  0.89380721    -0.04400
C892        C  0.46685617  0.63848300  0.89195646    -0.01600
C893        C  0.46506813  0.66143258  0.86552825     0.03400
C894        C  0.48985542  0.66530584  0.84159399    -0.04400
C895        C  0.01567496  0.64495837  0.84310224    -0.01600
C896        C  0.01706727  0.62126420  0.86861470     0.03400
C897        C  0.44246440  0.63721006  0.91818564     0.38100
C898        C  0.04112651  0.64860618  0.81834344     0.38100
C899        C  0.04335455  0.59996878  0.86811205     0.36500
C900        C  0.43800885  0.68167698  0.86338842     0.36500
N901        N  0.06457496  0.58329910  0.86751486    -0.38300
N902        N  0.41662682  0.69807704  0.86176545    -0.38300
N903        N  0.06130450  0.65146700  0.79848445    -0.37800
N904        N  0.42304859  0.63647553  0.93916921    -0.37800
C905        C  0.50378152  0.83165104  0.66256854    -0.04400
C906        C  0.47910118  0.85336787  0.66130587    -0.01600
C907        C  0.47938510  0.87774522  0.63654835     0.03400
C908        C  0.50396970  0.88014161  0.61180536    -0.04400
C909        C  0.02945069  0.85911806  0.61425828    -0.01600
C910        C  0.02945770  0.83528855  0.63979271     0.03400
C911        C  0.45326329  0.85064336  0.68571292     0.38100
C912        C  0.05538930  0.86109285  0.58999997     0.38100
C913        C  0.05586170  0.81428502  0.64259971     0.36500
C914        C  0.45462124  0.90078538  0.63765405     0.36500
N915        N  0.07683148  0.79742329  0.64484117    -0.38300
N916        N  0.43469367  0.91894971  0.63878091    -0.38300
N917        N  0.07615817  0.86257508  0.57072291    -0.37800
N918        N  0.43277414  0.84861317  0.70529668    -0.37800
C919        C  0.50373124  0.83001990  0.84304381    -0.04400
C920        C  0.02989950  0.83470537  0.86520095    -0.01600
C921        C  0.02993502  0.85903094  0.89023027     0.03400
C922        C  0.50424658  0.87981692  0.89227137    -0.04400
C923        C  0.47934238  0.87655416  0.86780776    -0.01600
C924        C  0.47846353  0.85101032  0.84450976     0.03400
C925        C  0.05674562  0.81430335  0.86232194     0.38100
C926        C  0.45536194  0.90029291  0.86490153     0.38100
C927        C  0.45130137  0.84612392  0.82203559     0.36500
C928        C  0.05631912  0.86200465  0.91409199     0.36500
N929        N  0.42961760  0.84206215  0.80423360    -0.38300
N930        N  0.07745109  0.86431123  0.93303878    -0.38300
N931        N  0.43630429  0.91923757  0.86211865    -0.37800
N932        N  0.07811519  0.79796345  0.86009983    -0.37800
C933        C  0.00237447  0.40368590  0.42077547     0.43300
N934        N  0.51527433  0.43386075  0.46364859     0.02200
C935        C  0.91420199  0.02198588  0.06365514    -0.05600
H936        H  0.90938963  0.04459074  0.43120527     0.07700
C937        C  0.52368907  0.08321805  0.43977150    -0.06000
Co938      Co  0.95875573  0.45624768  0.00170859     0.74200
N939        N  0.93383155  0.01114776  0.46298511    -0.25200
Co940      Co  0.95747891  0.03726967  0.50102833     0.74100
C941        C  0.99531495  0.09416680  0.42218195     0.42300
N942        N  0.56385058  0.01532667  0.46399168     0.01900
N943        N  0.98255338  0.06211679  0.46314714     0.02000
N944        N  0.91604095  0.46908746  0.06467667    -0.46000
H945        H  0.94973188  0.40792961  0.43374107     0.07700
N946        N  0.93420633  0.48024913  0.46323100     0.02200
N947        N  0.98217059  0.06213497  0.03967054     0.02000
C948        C  0.49452980  0.09336759  0.08193483     0.43600
N949        N  0.56440374  0.48442402  0.46432410    -0.24600
C950        C  0.97394734  0.41421333  0.06489626    -0.05500
N951        N  0.52703460  0.41667436  0.43815569    -0.45700
N952        N  0.97014482  0.07981794  0.06457230    -0.46000
C953        C  0.50220116  0.40359137  0.08285107     0.43400
N954        N  0.93388792  0.48090550  0.03956643     0.02200
N955        N  0.56448280  0.48451721  0.03978688    -0.24600
N956        N  0.98434539  0.43279851  0.46419626    -0.25100
N957        N  0.56364486  0.01537835  0.04043130     0.01900
H958        H  0.59087817  0.45071625  0.06859940     0.07800
H959        H  0.54732052  0.08926018  0.06898600     0.07800
N960        N  0.93325604  0.01176888  0.03860814    -0.25200
N961        N  0.51347616  0.06335927  0.46424301    -0.24800
N962        N  0.51525190  0.43398795  0.04041135     0.02200
C963        C  0.90384512  0.49159625  0.42045292     0.43600
C964        C  0.58351073  0.47464767  0.43902622    -0.06100
N965        N  0.51310115  0.06321518  0.03947293    -0.24800
H966        H  0.54793291  0.09016182  0.43622958     0.07800
N967        N  0.91644846  0.46759736  0.43836654    -0.46000
H968        H  0.58955188  0.45051367  0.43412943     0.07800
C969        C  0.59560209  0.00345086  0.08187612     0.43500
C970        C  0.97405615  0.41411811  0.43847829    -0.05500
Co971      Co  0.54032924  0.45863939  0.00204759     0.73800
N972        N  0.58182096  0.02755664  0.43924198    -0.45700
C973        C  0.90305471  0.99370078  0.08134950     0.43700
N974        N  0.52693430  0.41661222  0.06588351    -0.45700
Co975      Co  0.53894918  0.03977145  0.50205668     0.73900
C976        C  0.52307024  0.08258768  0.06471552    -0.06100
C977        C  0.91519857  0.02054555  0.43692332    -0.05600
N978        N  0.98430834  0.43305818  0.03957698    -0.25100
N979        N  0.97073828  0.08021187  0.43842957    -0.45900
H980        H  0.90823036  0.04621410  0.06803406     0.07700
C981        C  0.58426000  0.47480490  0.06458752    -0.06000
Cl982      Cl  0.49889379  0.99798828  0.00171965    -0.49000
C983        C  0.59486661  0.50329072  0.42206043     0.43500
H984        H  0.94961071  0.40791724  0.06904901     0.07700
N985        N  0.58194358  0.02762813  0.06509994    -0.45700
N986        N  0.00031889  0.29619474  0.25243875    -0.35700
N987        N  0.99581749  0.24892305  0.19754282    -0.56300
N988        N  0.99151262  0.20056351  0.25127365    -0.35700
N989        N  0.99592089  0.24790023  0.30613904    -0.56300
C990        C  0.00756116  0.31393908  0.22430541     0.27900
C991        C  0.00763834  0.31339255  0.28110511     0.27900
C992        C  0.98534282  0.18297608  0.22255770     0.27900
C993        C  0.98543055  0.18245459  0.27948101     0.27900
C994        C  0.99754081  0.27453927  0.17696354     0.36500
C995        C  0.99261496  0.22382208  0.17623887     0.36500
C996        C  0.99860373  0.27307227  0.32740362     0.36500
C997        C  0.99388319  0.22238121  0.32681239     0.36500
C998        C  0.01940296  0.34273920  0.23529047    -0.21000
C999        C  0.01941026  0.34241157  0.27102876    -0.21000
C1000       C  0.97544456  0.15329619  0.23268692    -0.21000
C1001       C  0.97542939  0.15299170  0.26847606    -0.21000
C1002       C  0.99503642  0.26566398  0.14227102    -0.22100
C1003       C  0.99251794  0.23354911  0.14179056    -0.22100
C1004       C  0.99790697  0.26353715  0.36188540    -0.22100
C1005       C  0.99569095  0.23145151  0.36151439    -0.22100
C1006       C  0.00285420  0.30565148  0.18884365    -0.17400
C1007       C  0.00322846  0.30439572  0.31629085    -0.17400
C1008       C  0.98950257  0.19109823  0.31501660    -0.17400
C1009       C  0.98902506  0.19230822  0.18729753    -0.17400
H1010       H  0.02725635  0.36206981  0.21919465     0.15500
H1011       H  0.02731474  0.36142661  0.28772970     0.15500
H1012       H  0.96875451  0.13383397  0.21599400     0.15500
H1013       H  0.96878047  0.13323781  0.28459059     0.15500
H1014       H  0.99556021  0.28063944  0.11956136     0.13800
H1015       H  0.99034837  0.21912567  0.11866512     0.13800
H1016       H  0.99963846  0.27803689  0.38498879     0.13800
H1017       H  0.99510047  0.21664846  0.38435030     0.13800
H1018       H  0.98940719  0.27439252  0.25211965     0.27000
H1019       H  0.00085255  0.22303667  0.25157265     0.27000
N1020       N  0.79686464  0.49301077  0.25259853    -0.35700
N1021       N  0.74825777  0.49714389  0.30626566    -0.56300
N1022       N  0.70211392  0.50593086  0.25151719    -0.35700
N1023       N  0.75080182  0.50181849  0.19793684    -0.56300
C1024       C  0.81269972  0.48276084  0.28091711     0.27900
C1025       C  0.81426754  0.48568444  0.22432222     0.27900
C1026       C  0.68419017  0.51238033  0.27969468     0.27900
C1027       C  0.68530865  0.51376070  0.22287482     0.27900
C1028       C  0.77341017  0.49389968  0.32744772     0.36500
C1029       C  0.72302780  0.50099754  0.32698722     0.36500
C1030       C  0.77637568  0.49975086  0.17739160     0.36500
C1031       C  0.72585484  0.50578074  0.17662028     0.36500
C1032       C  0.84034372  0.46876964  0.27050399    -0.21000
C1033       C  0.84138431  0.47072484  0.23484304    -0.21000
C1034       C  0.65574405  0.52443135  0.26869837    -0.21000
C1035       C  0.65641244  0.52521196  0.23294558    -0.21000
C1036       C  0.76414318  0.49609982  0.36194319    -0.22100
C1037       C  0.73218242  0.49960959  0.36166332    -0.22100
C1038       C  0.76768133  0.50290831  0.14273920    -0.22100
C1039       C  0.73563613  0.50602168  0.14220397    -0.22100
C1040       C  0.80432820  0.48759181  0.31617089    -0.17400
C1041       C  0.80707338  0.49289318  0.18923393    -0.17400
C1042       C  0.69447245  0.50986318  0.18767259    -0.17400
C1043       C  0.69209479  0.50701562  0.31515722    -0.17400
H1044       H  0.85812795  0.45849728  0.28700513     0.15500
H1045       H  0.86002511  0.46209272  0.21849336     0.15500
H1046       H  0.63642802  0.53190665  0.28479286     0.15500
H1047       H  0.63771414  0.53339844  0.21621294     0.15500
H1048       H  0.77865356  0.49471980  0.38507739     0.13800
H1049       H  0.71761418  0.50163441  0.38453240     0.13800
H1050       H  0.78265579  0.50213473  0.12007482     0.13800
H1051       H  0.72132395  0.50859775  0.11904762     0.13800
H1052       H  0.77657622  0.50609499  0.25285163     0.27000
H1053       H  0.72370282  0.49521315  0.25153622     0.27000
C1054       C  0.61985425  0.50630628  0.11023922    -0.04400
C1055       C  0.62366178  0.48173921  0.13471694    -0.01600
C1056       C  0.64857173  0.48272550  0.15900844     0.03400
C1057       C  0.66881967  0.50907641  0.16084389    -0.04400
C1058       C  0.66364386  0.03475835  0.13862405    -0.01600
C1059       C  0.63980697  0.03318517  0.11288154     0.03400
C1060       C  0.60110885  0.45604676  0.13662911     0.38100
C1061       C  0.68276901  0.06292138  0.14260732     0.38100
C1062       C  0.63649222  0.05923205  0.08899595     0.36500
C1063       C  0.65322801  0.45657373  0.18258209     0.36500
N1064       N  0.63401643  0.08016988  0.07010031    -0.38300
N1065       N  0.65691359  0.43581149  0.20145450    -0.38300
N1066       N  0.69804467  0.08533849  0.14600578    -0.37800
N1067       N  0.58318249  0.43553016  0.13860058    -0.37800
C1068       C  0.61831595  0.50594258  0.39318633    -0.04400
C1069       C  0.64074577  0.03080629  0.39248311    -0.01600
C1070       C  0.66371280  0.03214349  0.36600092     0.03400
C1071       C  0.66598869  0.50760286  0.34143075    -0.04400
C1072       C  0.64327720  0.48321273  0.34160511    -0.01600
C1073       C  0.61901491  0.48293894  0.36651325     0.03400
C1074       C  0.64147441  0.05429295  0.41985201     0.38100
C1075       C  0.64506902  0.45806959  0.31618208     0.38100
C1076       C  0.59421541  0.45943685  0.36365388     0.36500
C1077       C  0.68538297  0.05858032  0.36425076     0.36500
N1078       N  0.57441251  0.44074370  0.36111886    -0.38300
N1079       N  0.70277079  0.07957714  0.36279710    -0.38300
N1080       N  0.64656759  0.43807585  0.29586634    -0.37800
N1081       N  0.64239593  0.07297270  0.44175452    -0.37800
C1082       C  0.83317603  0.49160035  0.16313533    -0.04400
C1083       C  0.83523333  0.46634329  0.13953193    -0.01600
C1084       C  0.85789246  0.46686485  0.11275629     0.03400
C1085       C  0.88016789  0.49177124  0.11077267    -0.04400
C1086       C  0.87987009  0.01549323  0.13672138    -0.01600
C1087       C  0.85610053  0.01574141  0.16220781     0.03400
C1088       C  0.81407979  0.43967681  0.14314369     0.38100
C1089       C  0.90448116  0.03931010  0.13812358     0.38100
C1090       C  0.85528518  0.04095233  0.18761328     0.36500
C1091       C  0.85701719  0.44245462  0.08642407     0.36500
N1092       N  0.85486307  0.06107803  0.20785108    -0.38300
N1093       N  0.85601411  0.42303339  0.06534036    -0.38300
N1094       N  0.92408336  0.05831339  0.13936124    -0.37800
N1095       N  0.79732454  0.41835528  0.14642526    -0.37800
C1096       C  0.87974031  0.48855087  0.39234725    -0.04400
C1097       C  0.87944270  0.01036812  0.36467547    -0.01600
C1098       C  0.85420879  0.01061567  0.34089282     0.03400
C1099       C  0.83043760  0.48726233  0.34245330    -0.04400
C1100       C  0.83237007  0.46349340  0.36786435    -0.01600
C1101       C  0.85616714  0.46481888  0.39359032     0.03400
C1102       C  0.90580029  0.03168293  0.35941191     0.38100
C1103       C  0.80972508  0.43780694  0.36761939     0.38100
C1104       C  0.85534052  0.44247785  0.42200575     0.36500
C1105       C  0.85268141  0.03507393  0.31468773     0.36500
N1106       N  0.85439966  0.42471697  0.44473980    -0.38300
N1107       N  0.85135913  0.05443761  0.29368516    -0.38300
N1108       N  0.79154428  0.41743458  0.36738882    -0.37800
N1109       N  0.92690559  0.04846127  0.35474233    -0.37800
C1110       C  0.98975473  0.16680767  0.16035048    -0.04400
C1111       C  0.51660662  0.14800138  0.15770049    -0.01600
C1112       C  0.51730791  0.12281969  0.13388867     0.03400
C1113       C  0.99198289  0.11753447  0.11028792    -0.04400
C1114       C  0.96469157  0.13616660  0.11361285    -0.01600
C1115       C  0.96346178  0.16019181  0.13900618     0.03400
C1116       C  0.54366238  0.15455187  0.17983828     0.38100
C1117       C  0.93771844  0.13114068  0.09097109     0.38100
C1118       C  0.93500104  0.17803504  0.14346401     0.36500
C1119       C  0.54353241  0.10149146  0.13557830     0.36500
N1120       N  0.91226677  0.19220322  0.14710088    -0.38300
N1121       N  0.56450321  0.08457327  0.13743092    -0.38300
N1122       N  0.91606395  0.12719925  0.07308084    -0.37800
N1123       N  0.56521299  0.15982991  0.19746349    -0.37800
C1124       C  0.99294424  0.11812254  0.39379948    -0.04400
C1125       C  0.96685903  0.13848256  0.39195550    -0.01600
C1126       C  0.96507343  0.16143456  0.36552984     0.03400
C1127       C  0.98985687  0.16530085  0.34158932    -0.04400
C1128       C  0.51566904  0.14494314  0.34308864    -0.01600
C1129       C  0.51705990  0.12124879  0.36860105     0.03400
C1130       C  0.94247067  0.13721356  0.41818876     0.38100
C1131       C  0.54111557  0.14858241  0.31832213     0.38100
C1132       C  0.54334124  0.09994612  0.36809358     0.36500
C1133       C  0.93802061  0.18168815  0.36339863     0.36500
N1134       N  0.56455671  0.08327031  0.36749333    -0.38300
N1135       N  0.91664399  0.19809569  0.36178235    -0.38300
N1136       N  0.56128947  0.15143640  0.29845690    -0.37800
N1137       N  0.92305746  0.13648165  0.43917535    -0.37800
C1138       C  0.00377419  0.33164800  0.16256581    -0.04400
C1139       C  0.97908583  0.35335501  0.16129175    -0.01600
C1140       C  0.97936948  0.37773256  0.13653446     0.03400
C1141       C  0.00396084  0.38013679  0.11180013    -0.04400
C1142       C  0.52944842  0.35912103  0.11426331    -0.01600
C1143       C  0.52945662  0.33529268  0.13979907     0.03400
C1144       C  0.95323967  0.35061980  0.18568679     0.38100
C1145       C  0.55539404  0.36110406  0.09001491     0.38100
C1146       C  0.55586730  0.31429848  0.14261647     0.36500
C1147       C  0.95459849  0.40076529  0.13763323     0.36500
N1148       N  0.57684234  0.29744406  0.14486594    -0.38300
N1149       N  0.93466507  0.41892349  0.13875553    -0.38300
N1150       N  0.57616868  0.36259286  0.07074602    -0.37800
N1151       N  0.93274362  0.34858056  0.20526065    -0.37800
C1152       C  0.00372046  0.33001667  0.34304666    -0.04400
C1153       C  0.52989759  0.33470918  0.36518950    -0.01600
C1154       C  0.52993672  0.35903596  0.39021766     0.03400
C1155       C  0.00424189  0.37981559  0.39227277    -0.04400
C1156       C  0.97932968  0.37654601  0.36781981    -0.01600
C1157       C  0.97844782  0.35100045  0.34452402     0.03400
C1158       C  0.55674868  0.31431527  0.36229658     0.38100
C1159       C  0.95534463  0.40028073  0.36491968     0.38100
C1160       C  0.95127790  0.34610597  0.32206348     0.36500
C1161       C  0.55633261  0.36202122  0.41406155     0.36500
N1162       N  0.92958757  0.34203805  0.30427295    -0.38300
N1163       N  0.57747467  0.36433706  0.43299320    -0.38300
N1164       N  0.93628341  0.41922236  0.36214131    -0.37800
N1165       N  0.57812186  0.29798137  0.36006289    -0.37800
C1166       C  0.00237623  0.40368935  0.92077125     0.43300
N1167       N  0.51527449  0.43386199  0.96364715     0.02200
C1168       C  0.91420082  0.02198483  0.56365247    -0.05600
H1169       H  0.90939001  0.04459779  0.93120773     0.07700
C1170       C  0.52369193  0.08322227  0.93977751    -0.06000
Co1171     Co  0.95875737  0.45624613  0.50171258     0.74200
N1172       N  0.93383105  0.01115263  0.96298607    -0.25200
Co1173     Co  0.95747941  0.03727144  0.00103080     0.74100
C1174       C  0.99531691  0.09417384  0.92218988     0.42300
N1175       N  0.56385128  0.01532548  0.96399215     0.01900
N1176       N  0.98255442  0.06211973  0.96315108     0.02000
N1177       N  0.91604159  0.46908761  0.56467820    -0.46000
H1178       H  0.94973246  0.40793488  0.93372976     0.07700
N1179       N  0.93420636  0.48025434  0.96322909     0.02200
N1180       N  0.98216857  0.06213698  0.53966667     0.02000
C1181       C  0.49452639  0.09337470  0.58192931     0.43600
N1182       N  0.56440433  0.48442341  0.96432491    -0.24600
C1183       C  0.97395289  0.41421783  0.56490507    -0.05500
N1184       N  0.52703682  0.41667590  0.93815551    -0.45700
N1185       N  0.97014182  0.07982143  0.56456679    -0.46000
C1186       C  0.50220923  0.40359755  0.58285757     0.43400
N1187       N  0.93388892  0.48090523  0.53956815     0.02200
N1188       N  0.56448426  0.48452023  0.53978470    -0.24600
N1189       N  0.98434420  0.43280147  0.96419085    -0.25100
N1190       N  0.56364584  0.01538154  0.54043039     0.01900
H1191       H  0.59088241  0.45071941  0.56859359     0.07800
H1192       H  0.54731719  0.08926876  0.56897842     0.07800
N1193       N  0.93325642  0.01176778  0.53860699    -0.25200
N1194       N  0.51347846  0.06336064  0.96424581    -0.24800
N1195       N  0.51525575  0.43398990  0.54041332     0.02200
C1196       C  0.90384537  0.49160463  0.92045240     0.43600
C1197       C  0.58350987  0.47464756  0.93902516    -0.06100
N1198       N  0.51309885  0.06321857  0.53947037    -0.24800
H1199       H  0.54793583  0.09016707  0.93623924     0.07800
N1200       N  0.91644814  0.46760443  0.93836400    -0.46000
H1201       H  0.58954999  0.45051357  0.93412670     0.07800
C1202       C  0.59560774  0.00345366  0.58187090     0.43500
C1203       C  0.97405643  0.41412250  0.93847060    -0.05500
Co1204     Co  0.54033023  0.45864056  0.50204729     0.73800
N1205       N  0.58182027  0.02755557  0.93924123    -0.45700
C1206       C  0.90305503  0.99369993  0.58134844     0.43700
N1207       N  0.52694080  0.41661620  0.56588568    -0.45700
Co1208     Co  0.53895035  0.03976975  0.00205804     0.73900
C1209       C  0.52306715  0.08259433  0.56471023    -0.06100
C1210       C  0.91519824  0.02055223  0.93692489    -0.05600
N1211       N  0.98431200  0.43306038  0.53958261    -0.25100
N1212       N  0.97073992  0.08021772  0.93843578    -0.45900
H1213       H  0.90822726  0.04621286  0.56802933     0.07700
C1214       C  0.58426313  0.47480796  0.56458344    -0.06000
Cl1215     Cl  0.49889382  0.99798868  0.50172076    -0.49000
C1216       C  0.59486474  0.50329095  0.92205872     0.43500
H1217       H  0.94961665  0.40792218  0.56906171     0.07700
N1218       N  0.58194695  0.02763129  0.56509720    -0.45700
N1219       N  0.00032939  0.29619654  0.75243930    -0.35700
N1220       N  0.99582097  0.24892493  0.69754373    -0.56300
N1221       N  0.99150912  0.20056555  0.75127553    -0.35700
N1222       N  0.99592668  0.24790307  0.80614044    -0.56300
C1223       C  0.00757730  0.31393775  0.72430568     0.27900
C1224       C  0.00765757  0.31339116  0.78110503     0.27900
C1225       C  0.98534919  0.18297571  0.72255961     0.27900
C1226       C  0.98543621  0.18245515  0.77948342     0.27900
C1227       C  0.99753806  0.27454207  0.67696513     0.36500
C1228       C  0.99260783  0.22382482  0.67624005     0.36500
C1229       C  0.99860446  0.27307620  0.82740400     0.36500
C1230       C  0.99387573  0.22238579  0.82681491     0.36500
C1231       C  0.01943210  0.34273306  0.73528985    -0.21000
C1232       C  0.01944144  0.34240535  0.77102824    -0.21000
C1233       C  0.97546587  0.15329094  0.73268955    -0.21000
C1234       C  0.97545022  0.15298702  0.76847866    -0.21000
C1235       C  0.99501938  0.26566843  0.64227333    -0.22100
C1236       C  0.99249798  0.23355354  0.64179229    -0.22100
C1237       C  0.99789140  0.26354380  0.86188618    -0.22100
C1238       C  0.99567017  0.23145849  0.86151698    -0.22100
C1239       C  0.00286092  0.30565304  0.68884480    -0.17400
C1240       C  0.00324065  0.30439767  0.81629044    -0.17400
C1241       C  0.98950003  0.19110184  0.81501971    -0.17400
C1242       C  0.98902370  0.19230990  0.68729854    -0.17400
H1243       H  0.02729138  0.36206087  0.71919333     0.15500
H1244       H  0.02735344  0.36141749  0.78772904     0.15500
H1245       H  0.96878530  0.13382516  0.71599726     0.15500
H1246       H  0.96881036  0.13323014  0.78459319     0.15500
H1247       H  0.99553614  0.28064495  0.61956434     0.13800
H1248       H  0.99031876  0.21913123  0.61866699     0.13800
H1249       H  0.99961582  0.27804496  0.88498902     0.13800
H1250       H  0.99506852  0.21665746  0.88435413     0.13800
H1251       H  0.98940544  0.27439829  0.75212080     0.27000
H1252       H  0.00083700  0.22304926  0.75157418     0.27000
N1253       N  0.79686518  0.49301258  0.75259836    -0.35700
N1254       N  0.74825769  0.49714605  0.80626474    -0.56300
N1255       N  0.70211417  0.50592814  0.75151577    -0.35700
N1256       N  0.75080290  0.50181591  0.69793641    -0.56300
C1257       C  0.81269911  0.48276216  0.78091732     0.27900
C1258       C  0.81426759  0.48568353  0.72432269     0.27900
C1259       C  0.68419073  0.51238047  0.77969263     0.27900
C1260       C  0.68531012  0.51375913  0.72287299     0.27900
C1261       C  0.77341071  0.49390631  0.82744693     0.36500
C1262       C  0.72302755  0.50100039  0.82698605     0.36500
C1263       C  0.77637693  0.49974859  0.67739146     0.36500
C1264       C  0.72585606  0.50577642  0.67661934     0.36500
C1265       C  0.84034145  0.46876712  0.77050506    -0.21000
C1266       C  0.84138263  0.47072124  0.73484410    -0.21000
C1267       C  0.65574622  0.52443459  0.76869554    -0.21000
C1268       C  0.65641518  0.52521412  0.73294280    -0.21000
C1269       C  0.76414389  0.49611057  0.86194216    -0.22100
C1270       C  0.73218269  0.49961733  0.86166219    -0.22100
C1271       C  0.76768284  0.50290416  0.64273879    -0.22100
C1272       C  0.73563754  0.50601633  0.64220310    -0.22100
C1273       C  0.80432885  0.48759751  0.81617050    -0.17400
C1274       C  0.80707456  0.49289247  0.68923452    -0.17400
C1275       C  0.69447382  0.50985968  0.68767120    -0.17400
C1276       C  0.69209415  0.50701601  0.81515539    -0.17400
H1277       H  0.85812450  0.45849359  0.78700686     0.15500
H1278       H  0.86002259  0.46208675  0.71849479     0.15500
H1279       H  0.63643105  0.53191291  0.78478953     0.15500
H1280       H  0.63771823  0.53340259  0.71620954     0.15500
H1281       H  0.77865461  0.49473507  0.88507647     0.13800
H1282       H  0.71761459  0.50164407  0.88453114     0.13800
H1283       H  0.78265761  0.50213012  0.62007468     0.13800
H1284       H  0.72132538  0.50859134  0.61904655     0.13800
H1285       H  0.77657804  0.50609954  0.75285083     0.27000
H1286       H  0.72370224  0.49520761  0.75153544     0.27000
C1287       C  0.61985704  0.50630743  0.61023623    -0.04400
C1288       C  0.62366425  0.48173873  0.63471230    -0.01600
C1289       C  0.64857361  0.48272365  0.65900459     0.03400
C1290       C  0.66882147  0.50907435  0.66084223    -0.04400
C1291       C  0.66365053  0.03475747  0.63862030    -0.01600
C1292       C  0.63981439  0.03318540  0.61287679     0.03400
C1293       C  0.60111240  0.45604513  0.63662134     0.38100
C1294       C  0.68277691  0.06291954  0.64260496     0.38100
C1295       C  0.63650278  0.05923158  0.58898980     0.36500
C1296       C  0.65322949  0.45657056  0.68257658     0.36500
N1297       N  0.63403030  0.08016885  0.57009285    -0.38300
N1298       N  0.65691462  0.43580709  0.70144744    -0.38300
N1299       N  0.69805408  0.08533541  0.64600535    -0.37800
N1300       N  0.58318735  0.43552715  0.63859012    -0.37800
C1301       C  0.61831303  0.50594369  0.89318302    -0.04400
C1302       C  0.64074127  0.03080786  0.89247681    -0.01600
C1303       C  0.66370853  0.03214477  0.86599477     0.03400
C1304       C  0.66598696  0.50760360  0.84142801    -0.04400
C1305       C  0.64327453  0.48321419  0.84160128    -0.01600
C1306       C  0.61901260  0.48293972  0.86651019     0.03400
C1307       C  0.64146742  0.05429745  0.91984256     0.38100
C1308       C  0.64506415  0.45807328  0.81617524     0.38100
C1309       C  0.59421375  0.45943687  0.86365152     0.36500
C1310       C  0.68537720  0.05858272  0.86424272     0.36500
N1311       N  0.57441145  0.44074303  0.86111698    -0.38300
N1312       N  0.70276402  0.07958023  0.86278721    -0.38300
N1313       N  0.64656059  0.43808187  0.79585640    -0.37800
N1314       N  0.64238682  0.07297999  0.94174217    -0.37800
C1315       C  0.83317749  0.49159966  0.66313666    -0.04400
C1316       C  0.83523710  0.46634049  0.63953656    -0.01600
C1317       C  0.85789501  0.46686227  0.61275976     0.03400
C1318       C  0.88016691  0.49177154  0.61077184    -0.04400
C1319       C  0.87987136  0.01549353  0.63672006    -0.01600
C1320       C  0.85610313  0.01574117  0.66220802     0.03400
C1321       C  0.81408774  0.43967136  0.64315384     0.38100
C1322       C  0.90448075  0.03931227  0.63811901     0.38100
C1323       C  0.85528720  0.04095336  0.68761180     0.36500
C1324       C  0.85702237  0.44244866  0.58643137     0.36500
N1325       N  0.85486509  0.06108046  0.70784787    -0.38300
N1326       N  0.85602131  0.42302444  0.56535099    -0.38300
N1327       N  0.92408188  0.05831679  0.63935363    -0.37800
N1328       N  0.79733598  0.41834779  0.64644063    -0.37800
C1329       C  0.87973960  0.48856033  0.89234827    -0.04400
C1330       C  0.87944507  0.01037140  0.86467296    -0.01600
C1331       C  0.85421279  0.01061732  0.84088807     0.03400
C1332       C  0.83043887  0.48726897  0.84245233    -0.04400
C1333       C  0.83236718  0.46350475  0.86786924    -0.01600
C1334       C  0.85616263  0.46483263  0.89359660     0.03400
C1335       C  0.90580544  0.03168252  0.85940786     0.38100
C1336       C  0.80972049  0.43781977  0.86762793     0.38100
C1337       C  0.85532987  0.44249972  0.92201977     0.36500
C1338       C  0.85269271  0.03506844  0.81467417     0.36500
N1339       N  0.85438425  0.42474600  0.94476052    -0.38300
N1340       N  0.85137725  0.05442613  0.79366420    -0.38300
N1341       N  0.79153854  0.41744843  0.86739993    -0.37800
N1342       N  0.92691304  0.04845783  0.85473768    -0.37800
C1343       C  0.98975231  0.16681022  0.66034977    -0.04400
C1344       C  0.51660708  0.14801343  0.65768989    -0.01600
C1345       C  0.51730798  0.12283124  0.63387870     0.03400
C1346       C  0.99197862  0.11753780  0.61028503    -0.04400
C1347       C  0.96468383  0.13616377  0.61361921    -0.01600
C1348       C  0.96345541  0.16018881  0.63901335     0.03400
C1349       C  0.54366601  0.15456833  0.67982137     0.38100
C1350       C  0.93770406  0.13112896  0.59098960     0.38100
C1351       C  0.93499140  0.17802468  0.64348210     0.36500
C1352       C  0.54353498  0.10150595  0.63556555     0.36500
N1353       N  0.91225458  0.19218684  0.64712860    -0.38300
N1354       N  0.56450730  0.08458949  0.63741649    -0.38300
N1355       N  0.91604354  0.12718007  0.57311025    -0.37800
N1356       N  0.56521905  0.15984874  0.69744205    -0.37800
C1357       C  0.99294648  0.11813031  0.89380768    -0.04400
C1358       C  0.96685735  0.13848526  0.89195863    -0.01600
C1359       C  0.96506956  0.16143472  0.86553030     0.03400
C1360       C  0.98985593  0.16530607  0.84159443    -0.04400
C1361       C  0.51567698  0.14496138  0.84310434    -0.01600
C1362       C  0.51706931  0.12126633  0.86861576     0.03400
C1363       C  0.94246713  0.13721441  0.91818969     0.38100
C1364       C  0.54113067  0.14861303  0.81834885     0.38100
C1365       C  0.54335851  0.09997325  0.86811428     0.36500
C1366       C  0.93801149  0.18168085  0.86339187     0.36500
N1367       N  0.56458046  0.08330548  0.86751776    -0.38300
N1368       N  0.91663046  0.19808228  0.86176996    -0.38300
N1369       N  0.56131042  0.15147696  0.79849256    -0.37800
N1370       N  0.92305260  0.13648157  0.93917477    -0.37800
C1371       C  0.00378163  0.33165077  0.66256834    -0.04400
C1372       C  0.97909989  0.35336591  0.66130418    -0.01600
C1373       C  0.97938389  0.37774392  0.63654741     0.03400
C1374       C  0.00396953  0.38014198  0.61180579    -0.04400
C1375       C  0.52944975  0.35911627  0.61425622    -0.01600
C1376       C  0.52945666  0.33528682  0.63979067     0.03400
C1377       C  0.95326047  0.35063892  0.68570894     0.38100
C1378       C  0.55538591  0.36108805  0.58999443     0.38100
C1379       C  0.55585850  0.31428024  0.64259429     0.36500
C1380       C  0.95461921  0.40078318  0.63765286     0.36500
N1381       N  0.57682646  0.29741601  0.64483313    -0.38300
N1382       N  0.93469101  0.41894684  0.63877979    -0.38300
N1383       N  0.57615283  0.36256785  0.57071460    -0.37800
N1384       N  0.93277004  0.34860652  0.70529081    -0.37800
C1385       C  0.00373138  0.33002020  0.84304404    -0.04400
C1386       C  0.52989969  0.33470163  0.86520447    -0.01600
C1387       C  0.52993507  0.35902672  0.89023430     0.03400
C1388       C  0.00424654  0.37981758  0.89227114    -0.04400
C1389       C  0.97934180  0.37655389  0.86780834    -0.01600
C1390       C  0.97846295  0.35100969  0.84451084     0.03400
C1391       C  0.55674378  0.31429653  0.86232890     0.38100
C1392       C  0.95536075  0.40029205  0.86490233     0.38100
C1393       C  0.95129997  0.34612181  0.82203827     0.36500
C1394       C  0.55631600  0.36199634  0.91410090     0.36500
N1395       N  0.92961550  0.34205873  0.80423769    -0.38300
N1396       N  0.57744531  0.36429954  0.93305181    -0.38300
N1397       N  0.93630262  0.41923624  0.86211956    -0.37800
N1398       N  0.57811170  0.29795419  0.86010947    -0.37800
C1399       C  0.00237435  0.90368647  0.42077505     0.43300
N1400       N  0.51527377  0.93386065  0.46364840     0.02200
C1401       C  0.91420243  0.52198358  0.06365506    -0.05600
H1402       H  0.90938806  0.54458941  0.43120582     0.07700
C1403       C  0.52368881  0.58321820  0.43977009    -0.06000
Co1404     Co  0.95875467  0.95624865  0.00170985     0.74200
N1405       N  0.93383077  0.51114663  0.46298513    -0.25200
Co1406     Co  0.95747796  0.53726883  0.50102829     0.74100
C1407       C  0.99531394  0.59416589  0.42218182     0.42300
N1408       N  0.56385097  0.51532688  0.46399138     0.01900
N1409       N  0.98255238  0.56211607  0.46314714     0.02000
N1410       N  0.91604025  0.96908976  0.06467780    -0.46000
H1411       H  0.94973184  0.90793043  0.43374109     0.07700
N1412       N  0.93420695  0.98025027  0.46323091     0.02200
N1413       N  0.98217074  0.56213361  0.03967126     0.02000
C1414       C  0.49452897  0.59336821  0.08193489     0.43600
N1415       N  0.56440330  0.98442381  0.46432400    -0.24600
C1416       C  0.97394576  0.91421431  0.06489756    -0.05500
N1417       N  0.52703375  0.91667423  0.43815536    -0.45700
N1418       N  0.97014486  0.57981601  0.06457348    -0.46000
C1419       C  0.50220080  0.90359142  0.08285079     0.43400
N1420       N  0.93388727  0.98090728  0.03956734     0.02200
N1421       N  0.56448251  0.98451629  0.03978649    -0.24600
N1422       N  0.98434555  0.93279930  0.46419592    -0.25100
N1423       N  0.56364502  0.51537927  0.04043167     0.01900
H1424       H  0.59087716  0.95071515  0.06859960     0.07800
H1425       H  0.54731983  0.58926124  0.06898633     0.07800
N1426       N  0.93325650  0.51176711  0.03860780    -0.25200
N1427       N  0.51347618  0.56335943  0.46424180    -0.24800
N1428       N  0.51525155  0.93398738  0.04041067     0.02200
C1429       C  0.90384645  0.99159762  0.42045227     0.43600
C1430       C  0.58351004  0.97464768  0.43902581    -0.06100
N1431       N  0.51310085  0.56321577  0.03947324    -0.24800
H1432       H  0.54793257  0.59016217  0.43622798     0.07800
N1433       N  0.91644943  0.96759865  0.43836607    -0.46000
H1434       H  0.58955111  0.95051372  0.43412864     0.07800
C1435       C  0.59560290  0.50345196  0.08187587     0.43500
C1436       C  0.97405615  0.91411889  0.43847803    -0.05500
Co1437     Co  0.54032889  0.95863870  0.00204702     0.73800
N1438       N  0.58182156  0.52755663  0.43924171    -0.45700
C1439       C  0.90305530  0.49369815  0.08134887     0.43700
N1440       N  0.52693396  0.91661185  0.06588296    -0.45700
Co1441     Co  0.53894923  0.53977196  0.50205593     0.73900
C1442       C  0.52306963  0.58258847  0.06471580    -0.06100
C1443       C  0.91519735  0.52054427  0.43692368    -0.05600
N1444       N  0.98430697  0.93305927  0.03957849    -0.25100
N1445       N  0.97073725  0.58021104  0.43842948    -0.45900
H1446       H  0.90823072  0.54621170  0.06803458     0.07700
C1447       C  0.58425929  0.97480386  0.06458751    -0.06000
Cl1448     Cl  0.49889398  0.49798873  0.00172004    -0.49000
C1449       C  0.59486580  0.00329090  0.42206025     0.43500
H1450       H  0.94960908  0.90791813  0.06904970     0.07700
N1451       N  0.58194408  0.52762918  0.06509994    -0.45700
N1452       N  0.00031880  0.79619409  0.25243902    -0.35700
N1453       N  0.99581793  0.74892204  0.19754315    -0.56300
N1454       N  0.99151297  0.70056270  0.25127421    -0.35700
N1455       N  0.99592052  0.74789983  0.30613951    -0.56300
C1456       C  0.00756031  0.81393858  0.22430561     0.27900
C1457       C  0.00763730  0.81339230  0.28110536     0.27900
C1458       C  0.98534301  0.68297536  0.22255833     0.27900
C1459       C  0.98543026  0.68245423  0.27948164     0.27900
C1460       C  0.99754192  0.77453815  0.17696374     0.36500
C1461       C  0.99261634  0.72382090  0.17623926     0.36500
C1462       C  0.99860374  0.77307187  0.32740403     0.36500
C1463       C  0.99388324  0.72238084  0.32681292     0.36500
C1464       C  0.01940064  0.84273932  0.23529058    -0.21000
C1465       C  0.01940787  0.84241183  0.27102888    -0.21000
C1466       C  0.97544395  0.65329574  0.23268768    -0.21000
C1467       C  0.97542849  0.65299146  0.26847681    -0.21000
C1468       C  0.99503898  0.76566261  0.14227119    -0.22100
C1469       C  0.99252062  0.73354771  0.14179088    -0.22100
C1470       C  0.99790761  0.76353678  0.36188583    -0.22100
C1471       C  0.99569160  0.73145115  0.36151488    -0.22100
C1472       C  0.00285417  0.80565055  0.18884381    -0.17400
C1473       C  0.00322803  0.80439534  0.31629120    -0.17400
C1474       C  0.98950231  0.69109789  0.31501723    -0.17400
C1475       C  0.98902587  0.69230712  0.18729808    -0.17400
H1476       H  0.02725322  0.86207021  0.21919471     0.15500
H1477       H  0.02731145  0.86142729  0.28772973     0.15500
H1478       H  0.96875360  0.63383355  0.21599484     0.15500
H1479       H  0.96877902  0.63323780  0.28459143     0.15500
H1480       H  0.99556360  0.78063794  0.11956144     0.13800
H1481       H  0.99035197  0.71912411  0.11866547     0.13800
H1482       H  0.99963947  0.77803655  0.38498917     0.13800
H1483       H  0.99510153  0.71664812  0.38435082     0.13800
H1484       H  0.98940817  0.77439101  0.25211993     0.27000
H1485       H  0.00085391  0.72303647  0.25157320     0.27000
N1486       N  0.79686443  0.99301294  0.25259881    -0.35700
N1487       N  0.74825803  0.99714503  0.30626620    -0.56300
N1488       N  0.70211341  0.00593072  0.25151796    -0.35700
N1489       N  0.75080090  0.00181949  0.19793736    -0.56300
C1490       C  0.81270001  0.98276322  0.28091716     0.27900
C1491       C  0.81426728  0.98568709  0.22432233     0.27900
C1492       C  0.68418987  0.01238021  0.27969560     0.27900
C1493       C  0.68530771  0.01376012  0.22287571     0.27900
C1494       C  0.77341058  0.99390104  0.32744810     0.36500
C1495       C  0.72302804  0.00099804  0.32698790     0.36500
C1496       C  0.77637469  0.99975238  0.17739198     0.36500
C1497       C  0.72585367  0.00578078  0.17662091     0.36500
C1498       C  0.84034422  0.96877262  0.27050368    -0.21000
C1499       C  0.84138449  0.97072805  0.23484278    -0.21000
C1500       C  0.65574348  0.02443081  0.26869950    -0.21000
C1501       C  0.65641146  0.02521108  0.23294669    -0.21000
C1502       C  0.76414366  0.99610066  0.36194363    -0.22100
C1503       C  0.73218281  0.99960988  0.36166394    -0.22100
C1504       C  0.76768005  0.00290914  0.14273958    -0.22100
C1505       C  0.73563475  0.00602163  0.14220453    -0.22100
C1506       C  0.80432872  0.98759385  0.31617103    -0.17400
C1507       C  0.80707266  0.99289574  0.18923419    -0.17400
C1508       C  0.69447125  0.00986256  0.18767342    -0.17400
C1509       C  0.69209486  0.00701575  0.31515810    -0.17400
H1510       H  0.85812881  0.95850053  0.28700455     0.15500
H1511       H  0.86002536  0.96209641  0.21849286     0.15500
H1512       H  0.63642751  0.03190601  0.28479413     0.15500
H1513       H  0.63771289  0.03339718  0.21621419     0.15500
H1514       H  0.77865416  0.99472065  0.38507775     0.13800
H1515       H  0.71761459  0.00163423  0.38453309     0.13800
H1516       H  0.78265442  0.00213566  0.12007512     0.13800
H1517       H  0.72132233  0.00859710  0.11904826     0.13800
H1518       H  0.77657583  0.00609663  0.25285208     0.27000
H1519       H  0.72370239  0.99521330  0.25153689     0.27000
C1520       C  0.61985323  0.00630519  0.11023975    -0.04400
C1521       C  0.62366098  0.98173799  0.13471729    -0.01600
C1522       C  0.64857082  0.98272446  0.15900898     0.03400
C1523       C  0.66881835  0.00907565  0.16084483    -0.04400
C1524       C  0.66364569  0.53475889  0.13862263    -0.01600
C1525       C  0.63980851  0.53318591  0.11288043     0.03400
C1526       C  0.60110832  0.95604529  0.13662920     0.38100
C1527       C  0.68277196  0.56292131  0.14260474     0.38100
C1528       C  0.63649400  0.55923259  0.08899451     0.36500
C1529       C  0.65322727  0.95657268  0.18258257     0.36500
N1530       N  0.63401844  0.58017027  0.07009864    -0.38300
N1531       N  0.65691296  0.93581047  0.20145499    -0.38300
N1532       N  0.69804868  0.58533783  0.14600213    -0.37800
N1533       N  0.58318217  0.93552851  0.13860057    -0.37800
C1534       C  0.61831525  0.00594296  0.39318631    -0.04400
C1535       C  0.64074648  0.53080591  0.39248289    -0.01600
C1536       C  0.66371288  0.53214345  0.36600005     0.03400
C1537       C  0.66598886  0.00760281  0.34143174    -0.04400
C1538       C  0.64327726  0.98321276  0.34160580    -0.01600
C1539       C  0.61901447  0.98293929  0.36651331     0.03400
C1540       C  0.64147609  0.55429192  0.41985245     0.38100
C1541       C  0.64506957  0.95806930  0.31618322     0.38100
C1542       C  0.59421453  0.95943773  0.36365318     0.36500
C1543       C  0.68538262  0.55858059  0.36424925     0.36500
N1544       N  0.57441119  0.94074510  0.36111757    -0.38300
N1545       N  0.70277003  0.57957771  0.36279492    -0.38300
N1546       N  0.64656858  0.93807526  0.29586789    -0.37800
N1547       N  0.64239855  0.57297105  0.44175557    -0.37800
C1548       C  0.83317516  0.99160335  0.16313550    -0.04400
C1549       C  0.83523335  0.96634568  0.13953310    -0.01600
C1550       C  0.85789238  0.96686729  0.11275745     0.03400
C1551       C  0.88016708  0.99177430  0.11077307    -0.04400
C1552       C  0.87987166  0.51548948  0.13672176    -0.01600
C1553       C  0.85610212  0.51573779  0.16220822     0.03400
C1554       C  0.81408114  0.93967832  0.14314633     0.38100
C1555       C  0.90448347  0.53930558  0.13812455     0.38100
C1556       C  0.85528722  0.54094850  0.18761395     0.36500
C1557       C  0.85701778  0.94245632  0.08642606     0.36500
N1558       N  0.85486541  0.56107413  0.20785186    -0.38300
N1559       N  0.85601521  0.92303449  0.06534300    -0.38300
N1560       N  0.92408630  0.55830820  0.13936258    -0.37800
N1561       N  0.79732707  0.91835604  0.14642928    -0.37800
C1562       C  0.87974162  0.98855234  0.39234659    -0.04400
C1563       C  0.87944147  0.51036659  0.36467604    -0.01600
C1564       C  0.85420771  0.51061399  0.34089324     0.03400
C1565       C  0.83043838  0.98726427  0.34245321    -0.04400
C1566       C  0.83237114  0.96349511  0.36786396    -0.01600
C1567       C  0.85616852  0.96482029  0.39358959     0.03400
C1568       C  0.90579897  0.53168151  0.35941257     0.38100
C1569       C  0.80972631  0.93780851  0.36761885     0.38100
C1570       C  0.85534239  0.94247874  0.42200452     0.36500
C1571       C  0.85267989  0.53507264  0.31468863     0.36500
N1572       N  0.85440206  0.92471743  0.44473819    -0.38300
N1573       N  0.85135712  0.55443673  0.29368659    -0.38300
N1574       N  0.79154567  0.91743601  0.36738817    -0.37800
N1575       N  0.92690422  0.54845993  0.35474306    -0.37800
C1576       C  0.98975535  0.66680630  0.16035123    -0.04400
C1577       C  0.51660496  0.64800316  0.15769975    -0.01600
C1578       C  0.51730666  0.62282124  0.13388829     0.03400
C1579       C  0.99198286  0.61753230  0.11028949    -0.04400
C1580       C  0.96469211  0.63616535  0.11361346    -0.01600
C1581       C  0.96346267  0.66019110  0.13900622     0.03400
C1582       C  0.54366087  0.65455475  0.17983694     0.38100
C1583       C  0.93771925  0.63113982  0.09097122     0.38100
C1584       C  0.93500268  0.67803583  0.14346242     0.36500
C1585       C  0.54353151  0.60149346  0.13557823     0.36500
N1586       N  0.91226906  0.69220534  0.14709787    -0.38300
N1587       N  0.56450253  0.58457557  0.13743114    -0.38300
N1588       N  0.91606502  0.62719861  0.07308052    -0.37800
N1589       N  0.56521161  0.65983369  0.19746162    -0.37800
C1590       C  0.99294334  0.61812181  0.39379961    -0.04400
C1591       C  0.96685874  0.63848261  0.39195646    -0.01600
C1592       C  0.96507327  0.66143475  0.36553096     0.03400
C1593       C  0.98985648  0.66530058  0.34159002    -0.04400
C1594       C  0.51566716  0.64494418  0.34308777    -0.01600
C1595       C  0.51705862  0.62124967  0.36859994     0.03400
C1596       C  0.94247102  0.63721427  0.41819048     0.38100
C1597       C  0.54111328  0.64858383  0.31832080     0.38100
C1598       C  0.54334018  0.59994729  0.36809188     0.36500
C1599       C  0.93802100  0.68168913  0.36340054     0.36500
N1600       N  0.56455579  0.58327167  0.36749107    -0.38300
N1601       N  0.91664488  0.69809737  0.36178497    -0.38300
N1602       N  0.56128677  0.65143806  0.29845510    -0.37800
N1603       N  0.92305838  0.63648286  0.43917774    -0.37800
C1604       C  0.00377332  0.83164704  0.16256589    -0.04400
C1605       C  0.97908343  0.85335221  0.16129066    -0.01600
C1606       C  0.97936656  0.87773023  0.13653390     0.03400
C1607       C  0.00395902  0.88013671  0.11180105    -0.04400
C1608       C  0.52944739  0.85912096  0.11426336    -0.01600
C1609       C  0.52945506  0.83529278  0.13979926     0.03400
C1610       C  0.95323630  0.85061468  0.18568416     0.38100
C1611       C  0.55539301  0.86110322  0.09001489     0.38100
C1612       C  0.55586541  0.81429824  0.14261718     0.36500
C1613       C  0.95459386  0.90076114  0.13763201     0.36500
N1614       N  0.57684019  0.79744355  0.14486727    -0.38300
N1615       N  0.93465897  0.91891776  0.13875395    -0.38300
N1616       N  0.57616768  0.86259132  0.07074599    -0.37800
N1617       N  0.93273948  0.84857350  0.20525681    -0.37800
C1618       C  0.00371995  0.83001624  0.34304710    -0.04400
C1619       C  0.52989517  0.83470856  0.36519007    -0.01600
C1620       C  0.52993444  0.85903507  0.39021849     0.03400
C1621       C  0.00424157  0.87981582  0.39227253    -0.04400
C1622       C  0.97932858  0.87654508  0.36782065    -0.01600
C1623       C  0.97844665  0.85099911  0.34452540     0.03400
C1624       C  0.55674555  0.81431359  0.36229812     0.38100
C1625       C  0.95534281  0.90027909  0.36492079     0.38100
C1626       C  0.95127587  0.84610314  0.32206650     0.36500
C1627       C  0.55632941  0.86201876  0.41406385     0.36500
N1628       N  0.92958486  0.84203389  0.30427737    -0.38300
N1629       N  0.57747067  0.86433330  0.43299678    -0.38300
N1630       N  0.93628098  0.91922012  0.36214252    -0.37800
N1631       N  0.57811815  0.79797884  0.36006535    -0.37800
C1632       C  0.00237460  0.90368982  0.92077239     0.43300
N1633       N  0.51527398  0.93386155  0.96364651     0.02200
C1634       C  0.91419900  0.52198350  0.56365154    -0.05600
H1635       H  0.90938986  0.54459715  0.93120782     0.07700
C1636       C  0.52369197  0.58322296  0.93977803    -0.06000
Co1637     Co  0.95875773  0.95624700  0.50171238     0.74200
N1638       N  0.93383149  0.51115191  0.96298556    -0.25200
Co1639     Co  0.95747972  0.53727048  0.00103089     0.74100
C1640       C  0.99531707  0.59417434  0.92219090     0.42300
N1641       N  0.56385145  0.51532626  0.96399259     0.01900
N1642       N  0.98255460  0.56211972  0.96315166     0.02000
N1643       N  0.91604272  0.96908893  0.56467898    -0.46000
H1644       H  0.94973085  0.90793559  0.93373125     0.07700
N1645       N  0.93420564  0.98025508  0.96323005     0.02200
N1646       N  0.98216741  0.56213647  0.53966673     0.02000
C1647       C  0.49452581  0.59337514  0.58192822     0.43600
N1648       N  0.56440406  0.98442263  0.96432442    -0.24600
C1649       C  0.97395267  0.91421775  0.56490380    -0.05500
N1650       N  0.52703622  0.91667554  0.93815473    -0.45700
N1651       N  0.97014051  0.57982087  0.56456687    -0.46000
C1652       C  0.50220917  0.90359664  0.58285691     0.43400
N1653       N  0.93388961  0.98090629  0.53956836     0.02200
N1654       N  0.56448458  0.98451945  0.53978456    -0.24600
N1655       N  0.98434280  0.93280178  0.96419236    -0.25100
N1656       N  0.56364554  0.51538232  0.54043020     0.01900
H1657       H  0.59088385  0.95071852  0.56859208     0.07800
H1658       H  0.54731674  0.58926973  0.56897757     0.07800
N1659       N  0.93325540  0.51176671  0.53860672    -0.25200
N1660       N  0.51347846  0.56336119  0.96424617    -0.24800
N1661       N  0.51525562  0.93398938  0.54041306     0.02200
C1662       C  0.90384513  0.99160522  0.92045301     0.43600
C1663       C  0.58350949  0.97464672  0.93902462    -0.06100
N1664       N  0.51309873  0.56321930  0.53946928    -0.24800
H1665       H  0.54793585  0.59016794  0.93624001     0.07800
N1666       N  0.91644750  0.96760505  0.93836499    -0.46000
H1667       H  0.58954948  0.95051271  0.93412606     0.07800
C1668       C  0.59560604  0.50345464  0.58187212     0.43500
C1669       C  0.97405489  0.91412294  0.93847205    -0.05500
Co1670     Co  0.54033001  0.95864014  0.50204713     0.73800
N1671       N  0.58182046  0.52755639  0.93924168    -0.45700
C1672       C  0.90305320  0.49369842  0.58134720     0.43700
N1673       N  0.52694072  0.91661545  0.56588516    -0.45700
Co1674     Co  0.53895035  0.53977046  0.00205843     0.73900
C1675       C  0.52306677  0.58259515  0.56470920    -0.06100
C1676       C  0.91519840  0.52055159  0.93692460    -0.05600
N1677       N  0.98431212  0.93306079  0.53958203    -0.25100
N1678       N  0.97074006  0.58021797  0.93843657    -0.45900
H1679       H  0.90822484  0.54621142  0.56802805     0.07700
C1680       C  0.58426426  0.97480705  0.56458248    -0.06000
Cl1681     Cl  0.49889395  0.49798900  0.50172030    -0.49000
C1682       C  0.59486442  0.00329009  0.92205821     0.43500
H1683       H  0.94961636  0.90792193  0.56905949     0.07700
N1684       N  0.58194584  0.52763220  0.56509767    -0.45700
N1685       N  0.00032839  0.79619698  0.75243965    -0.35700
N1686       N  0.99582067  0.74892493  0.69754404    -0.56300
N1687       N  0.99151044  0.70056584  0.75127592    -0.35700
N1688       N  0.99592697  0.74790354  0.80614085    -0.56300
C1689       C  0.00757490  0.81393870  0.72430593     0.27900
C1690       C  0.00765508  0.81339237  0.78110535     0.27900
C1691       C  0.98534906  0.68297590  0.72256006     0.27900
C1692       C  0.98543655  0.68245555  0.77948401     0.27900
C1693       C  0.99753850  0.77454201  0.67696536     0.36500
C1694       C  0.99260895  0.72382462  0.67624035     0.36500
C1695       C  0.99860559  0.77307660  0.82740446     0.36500
C1696       C  0.99387804  0.72238606  0.82681527     0.36500
C1697       C  0.01942720  0.84273503  0.73529001    -0.21000
C1698       C  0.01943647  0.84240748  0.77102840    -0.21000
C1699       C  0.97546410  0.65329183  0.73269028    -0.21000
C1700       C  0.97544879  0.65298803  0.76847945    -0.21000
C1701       C  0.99502171  0.76566811  0.64227348    -0.22100
C1702       C  0.99250074  0.73355320  0.64179252    -0.22100
C1703       C  0.99789519  0.76354390  0.86188662    -0.22100
C1704       C  0.99567466  0.73145854  0.86151728    -0.22100
C1705       C  0.00285990  0.80565328  0.68884498    -0.17400
C1706       C  0.00323960  0.80439841  0.81629089    -0.17400
C1707       C  0.98950143  0.69110217  0.81502020    -0.17400
C1708       C  0.98902413  0.69230972  0.68729889    -0.17400
H1709       H  0.02728507  0.86206338  0.71919347     0.15500
H1710       H  0.02734703  0.86142028  0.78772907     0.15500
H1711       H  0.96878226  0.63382639  0.71599812     0.15500
H1712       H  0.96880798  0.63323159  0.78459416     0.15500
H1713       H  0.99553937  0.78064451  0.61956442     0.13800
H1714       H  0.99032286  0.71913077  0.61866717     0.13800
H1715       H  0.99962073  0.77804493  0.88498948     0.13800
H1716       H  0.99507473  0.71665730  0.88435433     0.13800
H1717       H  0.98940683  0.77439805  0.75212120     0.27000
H1718       H  0.00083905  0.72304674  0.75157444     0.27000
N1719       N  0.79686584  0.99301429  0.75259965    -0.35700
N1720       N  0.74825722  0.99714661  0.80626505    -0.56300
N1721       N  0.70211462  0.00592861  0.75151513    -0.35700
N1722       N  0.75080451  0.00181756  0.69793683    -0.56300
C1723       C  0.81269906  0.98276342  0.78091887     0.27900
C1724       C  0.81426873  0.98568528  0.72432434     0.27900
C1725       C  0.68419034  0.01237991  0.77969162     0.27900
C1726       C  0.68531083  0.01375909  0.72287199     0.27900
C1727       C  0.77341000  0.99390757  0.82744772     0.36500
C1728       C  0.72302675  0.00100086  0.82698586     0.36500
C1729       C  0.77637895  0.99975062  0.67739244     0.36500
C1730       C  0.72585798  0.00577779  0.67661922     0.36500
C1731       C  0.84034144  0.96876812  0.77050714    -0.21000
C1732       C  0.84138338  0.97072258  0.73484624    -0.21000
C1733       C  0.65574551  0.02443289  0.76869393    -0.21000
C1734       C  0.65641517  0.02521276  0.73294122    -0.21000
C1735       C  0.76414272  0.99611222  0.86194276    -0.22100
C1736       C  0.73218147  0.99961841  0.86166219    -0.22100
C1737       C  0.76768545  0.00290618  0.64273960    -0.22100
C1738       C  0.73564011  0.00601791  0.64220320    -0.22100
C1739       C  0.80432828  0.98759879  0.81617188    -0.17400
C1740       C  0.80707642  0.99289449  0.68923607    -0.17400
C1741       C  0.69447539  0.00986027  0.68767035    -0.17400
C1742       C  0.69209337  0.00701574  0.81515456    -0.17400
H1743       H  0.85812404  0.95849424  0.78700927     0.15500
H1744       H  0.86002356  0.96208801  0.71849730     0.15500
H1745       H  0.63642967  0.03191025  0.78478749     0.15500
H1746       H  0.63771817  0.03340053  0.71620759     0.15500
H1747       H  0.77865318  0.99473725  0.88507732     0.13800
H1748       H  0.71761306  0.00164512  0.88453089     0.13800
H1749       H  0.78266061  0.00213231  0.62007580     0.13800
H1750       H  0.72132836  0.00859260  0.61904631     0.13800
H1751       H  0.77657880  0.00610157  0.75285181     0.27000
H1752       H  0.72370326  0.99520910  0.75153521     0.27000
C1753       C  0.61985937  0.00630644  0.61023435    -0.04400
C1754       C  0.62366659  0.98173810  0.63471084    -0.01600
C1755       C  0.64857584  0.98272342  0.65900326     0.03400
C1756       C  0.66882352  0.00907429  0.66084074    -0.04400
C1757       C  0.66364819  0.53475804  0.63862264    -0.01600
C1758       C  0.63981173  0.53318657  0.61287948     0.03400
C1759       C  0.60111483  0.95604443  0.63662014     0.38100
C1760       C  0.68277458  0.56292003  0.64260787     0.38100
C1761       C  0.63649929  0.55923367  0.58899389     0.36500
C1762       C  0.65323175  0.95657060  0.68257561     0.36500
N1763       N  0.63402602  0.58017173  0.57009816    -0.38300
N1764       N  0.65691693  0.93580736  0.70144677    -0.38300
N1765       N  0.69805172  0.58533586  0.64600873    -0.37800
N1766       N  0.58318984  0.93552642  0.63858910    -0.37800
C1767       C  0.61831255  0.00594287  0.89318240    -0.04400
C1768       C  0.64074186  0.53080862  0.89247749    -0.01600
C1769       C  0.66370965  0.53214508  0.86599594     0.03400
C1770       C  0.66598594  0.00760327  0.84142688    -0.04400
C1771       C  0.64327371  0.98321367  0.84160031    -0.01600
C1772       C  0.61901193  0.98293905  0.86650940     0.03400
C1773       C  0.64146734  0.55429876  0.91984266     0.38100
C1774       C  0.64506332  0.95807282  0.81617422     0.38100
C1775       C  0.59421302  0.95943625  0.86365074     0.36500
C1776       C  0.68537895  0.55858255  0.86424446     0.36500
N1777       N  0.57441065  0.94074249  0.86111619    -0.38300
N1778       N  0.70276632  0.57957965  0.86278950    -0.38300
N1779       N  0.64655970  0.93808144  0.79585532    -0.37800
N1780       N  0.64238611  0.57298181  0.94174176    -0.37800
C1781       C  0.83317969  0.99160142  0.66313858    -0.04400
C1782       C  0.83523919  0.96634229  0.63953841    -0.01600
C1783       C  0.85789654  0.96686438  0.61276105     0.03400
C1784       C  0.88016880  0.99177333  0.61077326    -0.04400
C1785       C  0.87986923  0.51549182  0.63671847    -0.01600
C1786       C  0.85610099  0.51573936  0.66220633     0.03400
C1787       C  0.81409023  0.93967291  0.64315612     0.38100
C1788       C  0.90447864  0.53931055  0.63811758     0.38100
C1789       C  0.85528530  0.54095128  0.68761046     0.36500
C1790       C  0.85702240  0.94245192  0.58643140     0.36500
N1791       N  0.85486353  0.56107813  0.70784685    -0.38300
N1792       N  0.85601999  0.92302882  0.56534978    -0.38300
N1793       N  0.92407984  0.55831500  0.63935223    -0.37800
N1794       N  0.79733894  0.91834903  0.64644329    -0.37800
C1795       C  0.87973925  0.98856099  0.89234914    -0.04400
C1796       C  0.87944535  0.51037077  0.86467208    -0.01600
C1797       C  0.85421336  0.51061626  0.84088672     0.03400
C1798       C  0.83043798  0.98727036  0.84245404    -0.04400
C1799       C  0.83236604  0.96350628  0.86787116    -0.01600
C1800       C  0.85616195  0.96483369  0.89359797     0.03400
C1801       C  0.90580537  0.53168241  0.85940748     0.38100
C1802       C  0.80971862  0.93782193  0.86763075     0.38100
C1803       C  0.85532955  0.94250052  0.92202092     0.36500
C1804       C  0.85269321  0.53506728  0.81467272     0.36500
N1805       N  0.85438436  0.92474655  0.94476145    -0.38300
N1806       N  0.85137767  0.55442488  0.79366265    -0.38300
N1807       N  0.79153604  0.91745114  0.86740372    -0.37800
N1808       N  0.92691268  0.54845817  0.85473767    -0.37800
C1809       C  0.98975212  0.66680968  0.66035024    -0.04400
C1810       C  0.51660456  0.64801345  0.65768983    -0.01600
C1811       C  0.51730647  0.62283178  0.63387803     0.03400
C1812       C  0.99197741  0.61753718  0.61028528    -0.04400
C1813       C  0.96468423  0.63616570  0.61361709    -0.01600
C1814       C  0.96345607  0.66019058  0.63901152     0.03400
C1815       C  0.54366279  0.65456830  0.67982241     0.38100
C1816       C  0.93770622  0.63113410  0.59098408     0.38100
C1817       C  0.93499322  0.67802870  0.64347805     0.36500
C1818       C  0.54353432  0.60150751  0.63556445     0.36500
N1819       N  0.91225727  0.69219263  0.64712267    -0.38300
N1820       N  0.56450742  0.58459199  0.63741512    -0.38300
N1821       N  0.91604725  0.62718785  0.57310173    -0.37800
N1822       N  0.56521513  0.65984868  0.69744414    -0.37800
C1823       C  0.99294680  0.61813071  0.89380853    -0.04400
C1824       C  0.96685844  0.63848662  0.89196007    -0.01600
C1825       C  0.96507095  0.66143610  0.86553166     0.03400
C1826       C  0.98985690  0.66530638  0.84159502    -0.04400
C1827       C  0.51567574  0.64496086  0.84310333    -0.01600
C1828       C  0.51706898  0.62126669  0.86861571     0.03400
C1829       C  0.94246888  0.63721680  0.91819194     0.38100
C1830       C  0.54112852  0.64861170  0.81834656     0.38100
C1831       C  0.54335914  0.59997476  0.86811519     0.36500
C1832       C  0.93801370  0.68168335  0.86339402     0.36500
N1833       N  0.56458202  0.58330815  0.86751948    -0.38300
N1834       N  0.91663333  0.69808569  0.86177274    -0.38300
N1835       N  0.56130746  0.65147492  0.79848914    -0.37800
N1836       N  0.92305493  0.63648480  0.93917769    -0.37800
C1837       C  0.00378049  0.83165074  0.66256816    -0.04400
C1838       C  0.97909743  0.85336425  0.66130185    -0.01600
C1839       C  0.97938146  0.87774215  0.63654494     0.03400
C1840       C  0.00396852  0.88014164  0.61180511    -0.04400
C1841       C  0.52944973  0.85911527  0.61425523    -0.01600
C1842       C  0.52945655  0.83528556  0.63978939     0.03400
C1843       C  0.95325659  0.85063570  0.68570457     0.38100
C1844       C  0.55538608  0.86108751  0.58999370     0.38100
C1845       C  0.55585796  0.81427834  0.64259205     0.36500
C1846       C  0.95461509  0.90077969  0.63764849     0.36500
N1847       N  0.57682557  0.79741357  0.64482982    -0.38300
N1848       N  0.93468543  0.91894183  0.63877389    -0.38300
N1849       N  0.57615316  0.86256785  0.57071412    -0.37800
N1850       N  0.93276492  0.84860213  0.70528472    -0.37800
C1851       C  0.00373003  0.83002084  0.84304472    -0.04400
C1852       C  0.52989931  0.83470190  0.86520269    -0.01600
C1853       C  0.52993497  0.85902730  0.89023219     0.03400
C1854       C  0.00424494  0.87981834  0.89227184    -0.04400
C1855       C  0.97933930  0.87655343  0.86781031    -0.01600
C1856       C  0.97846059  0.85100905  0.84451300     0.03400
C1857       C  0.55674387  0.81429754  0.86232607     0.38100
C1858       C  0.95535738  0.90029077  0.86490494     0.38100
C1859       C  0.95129677  0.84611979  0.82204204     0.36500
C1860       C  0.55631710  0.86199835  0.91409696     0.36500
N1861       N  0.92961157  0.84205573  0.80424281    -0.38300
N1862       N  0.57744745  0.86430275  0.93304628    -0.38300
N1863       N  0.93629860  0.91923436  0.86212255    -0.37800
N1864       N  0.57811218  0.79795582  0.86010574    -0.37800
loop_ 
_geom_bond_atom_site_label_1 
_geom_bond_atom_site_label_2 
_geom_bond_distance 
_geom_bond_site_symmetry_2 
_ccdc_geom_bond_type 
C1           C38   1.462       .  S
C1          C223   1.496       .  S
C1          N951   1.354       .  A
N2           N19   1.326       .  A
N2          N956   1.318   1_455  A
N2         Co272   2.093       .  S
C3           C41   1.462   1_545  S
C3           N28   1.337       .  A
C3           H48   1.081       .  S
H4           C45   1.081       .  S
C5          C941   1.464   1_455  S
C5           N29   1.337       .  A
C5           H34   1.080       .  S
Co6          N46   2.072       .  S
Co6          N22   2.092       .  S
Co6         N257   2.074   1_554  S
Co6         N247   2.084   1_554  S
Co6       Cl1448   2.454       .  S
N7           C45   1.339       .  A
N7          N480   1.319   1_545  A
N7           Co8   2.083       .  S
Co8          N11   2.091       .  S
Co8         N261   2.079       .  S
Co8         N248   2.093       .  S
Co8       Cl1215   2.449   1_545  S
C9          C192   1.499       .  S
C9          C937   1.464       .  S
C9           N47   1.354       .  A
N10          N40   1.327       .  A
N10         N483   1.320   1_545  A
N10         Co43   2.094       .  S
N11          N47   1.326       .  A
N11         N961   1.318       .  A
N12         C507   1.354       .  A
N12          N22   1.327       .  A
H13          C38   1.081       .  S
N14          N35   1.325       .  A
N14         N473   1.319       .  A
N14        Co239   2.084       .  S
N15          N20   1.326       .  A
N15         N965   1.318       .  A
N15        Co241   2.093       .  S
C16          C44   1.466   1_655  S
C16        C1113   1.503       .  S
C16         N952   1.354       .  A
N17          C32   1.339       .  A
N17         N476   1.320       .  A
N17        Co272   2.086       .  S
C18         C953   1.462       .  S
C18          N46   1.336       .  A
C18          H52   1.081       .  S
N19         C933   1.354       .  A
N20         C948   1.354       .  A
C21         C950   1.462   1_455  S
C21        C1141   1.499       .  S
C21          N42   1.355       .  A
N22         N494   1.319       .  A
N23          C49   1.338       .  A
N23         N491   1.318       .  A
N23         Co39   2.080       .  S
N24          C38   1.336       .  A
N24         N934   1.318       .  A
N24        Co239   2.074       .  S
N25          N53   1.326       .  A
N25         N489   1.318   1_545  A
N25        Co276   2.092       .  S
H26          C49   1.081       .  S
H27          C44   1.080       .  S
N28         N488   1.319   1_545  A
N28        Co241   2.079       .  S
N29         N943   1.318   1_455  A
N29         Co43   2.077       .  S
N30          N42   1.327       .  A
N30         N978   1.319   1_455  A
N30         Co39   2.100       .  S
C31         C164   1.490       .  S
C31         C511   1.463       .  S
C31          N35   1.350       .  A
C32          C51   1.464       .  S
C32          H36   1.081       .  S
N33          C44   1.336       .  A
N33         N947   1.318   1_455  A
N33        Co276   2.077       .  S
C37         C515   1.465   1_545  S
C37         C588   1.501       .  S
C37          N53   1.353       .  A
Co39        N235   2.093   1_554  S
Co39        N250   2.086   1_554  S
Co39       Cl516   2.452   1_455  S
N40         C517   1.353       .  A
C41         C619   1.497       .  S
C41         N478   1.354       .  A
Co43        N258   2.092       .  S
Co43        N266   2.077       .  S
Co43       Cl283   2.453   1_445  S
C45         C497   1.463   1_545  S
N46         N962   1.319       .  A
C49         C503   1.465       .  S
Cl50      Co1404   2.454       .  S
Cl50      Co1173   2.449   1_565  S
Cl50       Co505   2.452   1_655  S
Cl50       Co276   2.453   1_665  S
C51         C136   1.499       .  S
C51         N506   1.353       .  A
N54          C59   1.354       .  A
N54          C58   1.355       .  A
N54          H86   1.035       .  S
N55          C62   1.352       .  A
N55          C63   1.351       .  A
N56          C61   1.356       .  A
N56          C60   1.355       .  A
N56          H87   1.034       .  S
N57          C64   1.351       .  A
N57          C65   1.351       .  A
C58          C66   1.387       .  A
C58          C74   1.418       .  A
C59          C75   1.417       .  A
C59          C67   1.387       .  A
C60          C68   1.387       .  A
C60          C77   1.420       .  A
C61          C76   1.421       .  A
C61          C69   1.387       .  A
C62          C74   1.418       .  A
C62          C70   1.387       .  A
C63          C77   1.418       .  A
C63          C71   1.386       .  A
C64          C72   1.385       .  A
C64          C75   1.416       .  A
C65          C73   1.387       .  A
C65          C76   1.419       .  A
C66          H78   1.082       .  S
C66          C67   1.371       .  A
C67          H79   1.082       .  S
C68          H80   1.082       .  S
C68          C69   1.373       .  A
C69          H81   1.082       .  S
C70          H82   1.082       .  S
C70          C71   1.374       .  A
C71          H83   1.082       .  S
C72          H84   1.082       .  S
C72          C73   1.372       .  A
C73          H85   1.082       .  S
C74         C206   1.501       .  S
C75         C220   1.498       .  S
C76         C195   1.502       .  S
C77         C178   1.501       .  S
N88          C93   1.356       .  A
N88          C92   1.352       .  A
N88         H120   1.035       .  S
N89          C96   1.350       .  A
N89          C97   1.352       .  A
N90          C95   1.353       .  A
N90          C94   1.357       .  A
N90         H121   1.032       .  S
N91          C98   1.352       .  A
N91          C99   1.350       .  A
C92         C100   1.387       .  A
C92         C108   1.416       .  A
C93         C109   1.415       .  A
C93         C101   1.386       .  A
C94         C102   1.387       .  A
C94         C111   1.420       .  A
C95         C110   1.418       .  A
C95         C103   1.387       .  A
C96         C108   1.418       .  A
C96         C104   1.387       .  A
C97         C111   1.418       .  A
C97         C105   1.386       .  A
C98         C106   1.386       .  A
C98         C109   1.417       .  A
C99         C107   1.387       .  A
C99         C110   1.418       .  A
C100        H112   1.083       .  S
C100        C101   1.372       .  A
C101        H113   1.082       .  S
C102        H114   1.082       .  S
C102        C103   1.373       .  A
C103        H115   1.082       .  S
C104        H116   1.081       .  S
C104        C105   1.372       .  A
C105        H117   1.081       .  S
C106        H118   1.082       .  S
C106        C107   1.374       .  A
C107        H119   1.082       .  S
C108        C167   1.498       .  S
C109        C150   1.502       .  S
C110        C125   1.498       .  S
C111        C139   1.505       .  S
C122        C503   1.501       .  S
C122        C123   1.419       .  A
C122        C593   1.423       .  A
C123        C124   1.409       .  A
C123        C128   1.451       .  S
C124        C125   1.410       .  A
C124        C131   1.453       .  S
C125        C592   1.409       .  A
C126        C127   1.414       .  A
C126        C591   1.409       .  A
C126        C129   1.451       .  S
C127        C588   1.423       .  A
C127        C130   1.450       .  S
C128        N135   1.158       .  T
C129        N134   1.157       .  T
C130        N132   1.158       .  T
C131        N133   1.157       .  T
C136        C141   1.418       .  A
C136        C603   1.420       .  A
C137        C138   1.415       .  A
C137        C602   1.420       .  A
C137        C142   1.450       .  S
C138        C605   1.412       .  A
C138        C145   1.451       .  S
C139        C140   1.413       .  A
C139        C604   1.412       .  A
C140        C141   1.411       .  A
C140        C143   1.452       .  S
C141        C144   1.452       .  S
C142        N149   1.157       .  T
C143        N148   1.157       .  T
C144        N146   1.158       .  T
C145        N147   1.157       .  T
C150        C151   1.410       .  A
C150        C621   1.412       .  A
C151        C152   1.414       .  A
C151        C156   1.450       .  S
C152        C153   1.419       .  A
C152        C159   1.450       .  S
C153        C507   1.497       .  S
C153        C620   1.419       .  A
C154        C155   1.412       .  A
C154        C619   1.419   1_545  A
C154        C157   1.452       .  S
C155        C616   1.412   1_545  A
C155        C158   1.451       .  S
C156        N163   1.157       .  T
C157        N162   1.158       .  T
C158        N160   1.157       .  T
C159        N161   1.157       .  T
C164        C169   1.419       .  A
C164        C631   1.414       .  A
C165        C166   1.407       .  A
C165        C630   1.414   1_545  A
C165        C170   1.452       .  S
C166        C633   1.414   1_545  A
C166        C173   1.453       .  S
C167        C168   1.411       .  A
C167        C632   1.414       .  A
C168        C169   1.412       .  A
C168        C171   1.451       .  S
C169        C172   1.450       .  S
C170        N177   1.158       .  T
C171        N176   1.157       .  T
C172        N174   1.157       .  T
C173        N175   1.157       .  T
C178        C183   1.410       .  A
C178       C1111   1.410       .  A
C179        C180   1.410       .  A
C179       C1110   1.410   1_455  A
C179        C184   1.453       .  S
C180       C1113   1.421   1_455  A
C180        C187   1.451       .  S
C181        C948   1.503       .  S
C181        C182   1.423       .  A
C181       C1112   1.421       .  A
C182        C183   1.415       .  A
C182        C185   1.451       .  S
C183        C186   1.451       .  S
C184        N191   1.157       .  T
C185        N190   1.158       .  T
C186        N188   1.157       .  T
C187        N189   1.158       .  T
C192        C193   1.421       .  A
C192       C1129   1.420       .  A
C193        C194   1.414       .  A
C193        C198   1.451       .  S
C194        C195   1.412       .  A
C194        C201   1.452       .  S
C195       C1128   1.411       .  A
C196        C197   1.411       .  A
C196       C1127   1.411   1_455  A
C196        C199   1.453       .  S
C197       C1124   1.420   1_455  A
C197        C200   1.451       .  S
C198        N205   1.158       .  T
C199        N204   1.157       .  T
C200        N202   1.158       .  T
C201        N203   1.157       .  T
C206        C207   1.411       .  A
C206       C1143   1.411       .  A
C207        C208   1.410       .  A
C207        C212   1.453       .  S
C208        C209   1.420       .  A
C208        C215   1.452       .  S
C209        C953   1.499       .  S
C209       C1142   1.420       .  A
C210        C211   1.414       .  A
C210       C1141   1.420       .  A
C210        C213   1.450       .  S
C211       C1138   1.411       .  A
C211        C214   1.451       .  S
C212        N219   1.157       .  T
C213        N218   1.157       .  T
C214        N216   1.157       .  T
C215        N217   1.158       .  T
C220        C225   1.410       .  A
C220       C1153   1.411       .  A
C221        C222   1.413       .  A
C221       C1152   1.411       .  A
C221        C226   1.451       .  S
C222       C1155   1.420       .  A
C222        C229   1.450       .  S
C223        C224   1.419       .  A
C223       C1154   1.420       .  A
C224        C225   1.409       .  A
C224        C227   1.452       .  S
C225        C228   1.452       .  S
C226        N233   1.157       .  T
C227        N232   1.158       .  T
C228        N230   1.157       .  T
C229        N231   1.158       .  T
C234        C271   1.462       .  S
C234        C456   1.496       .  S
C234       N1184   1.354       .  A
N235        N252   1.326       .  A
N235       N1189   1.318   1_455  A
C236        C274   1.462   1_545  S
C236        N261   1.337       .  A
C236        H281   1.081       .  S
H237        C278   1.081       .  S
C238       C1174   1.464   1_455  S
C238        N262   1.337       .  A
C238        H267   1.080       .  S
Co239       N279   2.072       .  S
Co239       N255   2.092       .  S
Co239     Cl1681   2.454       .  S
N240        C278   1.339       .  A
N240        N713   1.319   1_545  A
N240       Co241   2.083   1_556  S
Co241       N244   2.091   1_554  S
Co241      Cl982   2.449   1_545  S
C242       C1170   1.464       .  S
C242        C425   1.499       .  S
C242        N280   1.354       .  A
N243        N716   1.320   1_545  A
N243        N273   1.327       .  A
N243       Co276   2.094   1_556  S
N244       N1194   1.318       .  A
N244        N280   1.326       .  A
N245        C740   1.354       .  A
N245        N255   1.327       .  A
H246        C271   1.081       .  S
N247        N706   1.319       .  A
N247        N268   1.325       .  A
N248       N1198   1.318       .  A
N248        N253   1.326       .  A
C249        C277   1.466   1_655  S
C249       C1346   1.503       .  S
C249       N1185   1.354       .  A
N250        C265   1.339       .  A
N250        N709   1.320       .  A
C251       C1186   1.461       .  S
C251        N279   1.336       .  A
C251        H285   1.081       .  S
N252       C1166   1.354       .  A
N253       C1181   1.354       .  A
C254       C1183   1.461   1_455  S
C254       C1374   1.499       .  S
C254        N275   1.355       .  A
N255        N727   1.319       .  A
N256        C282   1.338       .  A
N256        N724   1.318       .  A
N256       Co272   2.080       .  S
N257        C271   1.336       .  A
N257       N1167   1.318       .  A
N258        N722   1.318   1_545  A
N258        N286   1.326       .  A
H259        C282   1.081       .  S
H260        C277   1.080       .  S
N261        N721   1.319   1_545  A
N262       N1176   1.318   1_455  A
N262       Co276   2.077   1_556  S
N263        N275   1.327       .  A
N263       N1211   1.319   1_455  A
N263       Co272   2.100       .  S
C264        C744   1.463       .  S
C264        C397   1.490       .  S
C264        N268   1.350       .  A
C265        C284   1.464       .  S
C265        H269   1.081       .  S
N266        C277   1.336       .  A
N266       N1180   1.318   1_455  A
C270        C748   1.465   1_545  S
C270        C821   1.501       .  S
C270        N286   1.354       .  A
Co272      Cl749   2.452   1_455  S
N273        C750   1.353       .  A
C274        C852   1.497       .  S
C274        N711   1.354       .  A
C278        C730   1.463   1_545  S
N279       N1195   1.319       .  A
C282        C736   1.465       .  S
Cl283     Co1637   2.454       .  S
Cl283      Co940   2.449   1_565  S
Cl283      Co738   2.452   1_655  S
C284        C369   1.499       .  S
C284        N739   1.353       .  A
N287        C292   1.354       .  A
N287        C291   1.355       .  A
N287        H319   1.035       .  S
N288        C295   1.352       .  A
N288        C296   1.351       .  A
N289        C294   1.356       .  A
N289        C293   1.355       .  A
N289        H320   1.034       .  S
N290        C297   1.351       .  A
N290        C298   1.351       .  A
C291        C299   1.387       .  A
C291        C307   1.418       .  A
C292        C308   1.417       .  A
C292        C300   1.387       .  A
C293        C301   1.387       .  A
C293        C310   1.420       .  A
C294        C309   1.421       .  A
C294        C302   1.387       .  A
C295        C307   1.418       .  A
C295        C303   1.387       .  A
C296        C310   1.418       .  A
C296        C304   1.386       .  A
C297        C305   1.385       .  A
C297        C308   1.416       .  A
C298        C306   1.387       .  A
C298        C309   1.419       .  A
C299        H311   1.082       .  S
C299        C300   1.371       .  A
C300        H312   1.082       .  S
C301        H313   1.082       .  S
C301        C302   1.373       .  A
C302        H314   1.082       .  S
C303        H315   1.082       .  S
C303        C304   1.374       .  A
C304        H316   1.082       .  S
C305        H317   1.082       .  S
C305        C306   1.372       .  A
C306        H318   1.082       .  S
C307        C439   1.501       .  S
C308        C453   1.498       .  S
C309        C428   1.502       .  S
C310        C411   1.501       .  S
N321        C326   1.356       .  A
N321        C325   1.352       .  A
N321        H353   1.035       .  S
N322        C329   1.350       .  A
N322        C330   1.352       .  A
N323        C328   1.353       .  A
N323        C327   1.357       .  A
N323        H354   1.032       .  S
N324        C331   1.352       .  A
N324        C332   1.350       .  A
C325        C333   1.387       .  A
C325        C341   1.416       .  A
C326        C342   1.415       .  A
C326        C334   1.386       .  A
C327        C335   1.387       .  A
C327        C344   1.420       .  A
C328        C343   1.418       .  A
C328        C336   1.387       .  A
C329        C341   1.418       .  A
C329        C337   1.387       .  A
C330        C344   1.418       .  A
C330        C338   1.386       .  A
C331        C339   1.386       .  A
C331        C342   1.417       .  A
C332        C340   1.387       .  A
C332        C343   1.418       .  A
C333        H345   1.083       .  S
C333        C334   1.372       .  A
C334        H346   1.082       .  S
C335        H347   1.082       .  S
C335        C336   1.373       .  A
C336        H348   1.082       .  S
C337        H349   1.081       .  S
C337        C338   1.372       .  A
C338        H350   1.081       .  S
C339        H351   1.082       .  S
C339        C340   1.374       .  A
C340        H352   1.082       .  S
C341        C400   1.498       .  S
C342        C383   1.502       .  S
C343        C358   1.498       .  S
C344        C372   1.505       .  S
C355        C736   1.501       .  S
C355        C356   1.419       .  A
C355        C826   1.423       .  A
C356        C357   1.409       .  A
C356        C361   1.451       .  S
C357        C358   1.410       .  A
C357        C364   1.453       .  S
C358        C825   1.409       .  A
C359        C824   1.409       .  A
C359        C360   1.414       .  A
C359        C362   1.451       .  S
C360        C821   1.423       .  A
C360        C363   1.450       .  S
C361        N368   1.158       .  T
C362        N367   1.157       .  T
C363        N365   1.158       .  T
C364        N366   1.157       .  T
C369        C836   1.420       .  A
C369        C374   1.418       .  A
C370        C835   1.420       .  A
C370        C371   1.415       .  A
C370        C375   1.450       .  S
C371        C838   1.412       .  A
C371        C378   1.451       .  S
C372        C837   1.412       .  A
C372        C373   1.413       .  A
C373        C374   1.411       .  A
C373        C376   1.452       .  S
C374        C377   1.452       .  S
C375        N382   1.157       .  T
C376        N381   1.157       .  T
C377        N379   1.158       .  T
C378        N380   1.157       .  T
C383        C384   1.410       .  A
C383        C854   1.412       .  A
C384        C385   1.414       .  A
C384        C389   1.450       .  S
C385        C386   1.419       .  A
C385        C392   1.450       .  S
C386        C740   1.497       .  S
C386        C853   1.419       .  A
C387        C852   1.419   1_545  A
C387        C388   1.412       .  A
C387        C390   1.452       .  S
C388        C849   1.412   1_545  A
C388        C391   1.451       .  S
C389        N396   1.157       .  T
C390        N395   1.158       .  T
C391        N393   1.157       .  T
C392        N394   1.157       .  T
C397        C864   1.414       .  A
C397        C402   1.419       .  A
C398        C863   1.414   1_545  A
C398        C399   1.407       .  A
C398        C403   1.452       .  S
C399        C866   1.414   1_545  A
C399        C406   1.453       .  S
C400        C865   1.414       .  A
C400        C401   1.411       .  A
C401        C402   1.412       .  A
C401        C404   1.451       .  S
C402        C405   1.450       .  S
C403        N410   1.158       .  T
C404        N409   1.157       .  T
C405        N407   1.157       .  T
C406        N408   1.157       .  T
C411       C1344   1.410       .  A
C411        C416   1.410       .  A
C412       C1343   1.410   1_455  A
C412        C413   1.410       .  A
C412        C417   1.453       .  S
C413       C1346   1.421   1_455  A
C413        C420   1.451       .  S
C414       C1181   1.503       .  S
C414       C1345   1.421       .  A
C414        C415   1.423       .  A
C415        C416   1.415       .  A
C415        C418   1.451       .  S
C416        C419   1.451       .  S
C417        N424   1.157       .  T
C418        N423   1.158       .  T
C419        N421   1.157       .  T
C420        N422   1.158       .  T
C425        C426   1.421       .  A
C425       C1362   1.420       .  A
C426        C427   1.414       .  A
C426        C431   1.451       .  S
C427        C428   1.412       .  A
C427        C434   1.452       .  S
C428       C1361   1.411       .  A
C429       C1360   1.411   1_455  A
C429        C430   1.411       .  A
C429        C432   1.453       .  S
C430       C1357   1.420   1_455  A
C430        C433   1.451       .  S
C431        N438   1.158       .  T
C432        N437   1.157       .  T
C433        N435   1.158       .  T
C434        N436   1.157       .  T
C439        C440   1.411       .  A
C439       C1376   1.411       .  A
C440        C441   1.410       .  A
C440        C445   1.453       .  S
C441        C442   1.420       .  A
C441        C448   1.452       .  S
C442       C1186   1.499       .  S
C442       C1375   1.420       .  A
C443       C1374   1.420       .  A
C443        C444   1.414       .  A
C443        C446   1.450       .  S
C444       C1371   1.411       .  A
C444        C447   1.451       .  S
C445        N452   1.157       .  T
C446        N451   1.157       .  T
C447        N449   1.157       .  T
C448        N450   1.158       .  T
C453       C1386   1.411       .  A
C453        C458   1.410       .  A
C454       C1385   1.411       .  A
C454        C455   1.413       .  A
C454        C459   1.451       .  S
C455       C1388   1.420       .  A
C455        C462   1.450       .  S
C456       C1387   1.420       .  A
C456        C457   1.419       .  A
C457        C458   1.409       .  A
C457        C460   1.452       .  S
C458        C461   1.452       .  S
C459        N466   1.157       .  T
C460        N465   1.158       .  T
C461        N463   1.157       .  T
C462        N464   1.158       .  T
C467        C504   1.462       .  S
C467        C689   1.496       .  S
C467       N1417   1.354       .  A
N468        N485   1.326       .  A
N468       N1422   1.318   1_455  A
N468       Co738   2.093       .  S
C469        C507   1.462       .  S
C469        N494   1.337       .  A
C469        H514   1.081       .  S
H470        C511   1.081       .  S
C471       C1407   1.464   1_455  S
C471        N495   1.337       .  A
C471        H500   1.080       .  S
Co472       N723   2.074   1_554  S
Co472       N713   2.084   1_554  S
Co472       N512   2.072       .  S
Co472       N488   2.092       .  S
Co472      Cl982   2.454       .  S
N473        C511   1.339       .  A
N473       Co474   2.083       .  S
Co474       N477   2.091       .  S
Co474       N727   2.079       .  S
Co474       N714   2.093       .  S
Co474     Cl1681   2.449       .  S
C475       C1403   1.464       .  S
C475        C658   1.499       .  S
C475        N513   1.354       .  A
N476        N506   1.327       .  A
N476       Co509   2.094       .  S
N477       N1427   1.318       .  A
N477        N513   1.326       .  A
N478        N488   1.327       .  A
H479        C504   1.081       .  S
N480        N501   1.325       .  A
N480       Co705   2.084       .  S
N481       N1431   1.318       .  A
N481        N486   1.326       .  A
N481       Co707   2.093       .  S
C482        C510   1.466   1_655  S
C482       C1579   1.503       .  S
C482       N1418   1.354       .  A
N483        C498   1.339       .  A
N483       Co738   2.086       .  S
C484       C1419   1.462       .  S
C484        N512   1.336       .  A
C484        H518   1.081       .  S
N485       C1399   1.354       .  A
N486       C1414   1.354       .  A
C487       C1416   1.462   1_455  S
C487       C1607   1.499       .  S
C487        N508   1.355       .  A
N489        C515   1.338       .  A
N489       Co505   2.080       .  S
N490        C504   1.336       .  A
N490       N1400   1.318       .  A
N490       Co705   2.074       .  S
N491        N519   1.326       .  A
N491       Co742   2.092       .  S
H492        C515   1.081       .  S
H493        C510   1.080       .  S
N494       Co707   2.079       .  S
N495       N1409   1.318   1_455  A
N495       Co509   2.077       .  S
N496        N508   1.327       .  A
N496       N1444   1.319   1_455  A
N496       Co505   2.100       .  S
C497        C630   1.490       .  S
C497        N501   1.350       .  A
C498        C517   1.464   1_565  S
C498        H502   1.081       .  S
N499        C510   1.336       .  A
N499       N1413   1.318   1_455  A
N499       Co742   2.077       .  S
C503        N519   1.353       .  A
Co505       N701   2.093   1_554  S
Co505       N716   2.086   1_554  S
Co509       N724   2.092       .  S
Co509       N732   2.077       .  S
Co509      Cl749   2.453   1_455  S
N512       N1428   1.319       .  A
Cl516      Co938   2.454       .  S
Cl516     Co1639   2.449       .  S
Cl516      Co742   2.453   1_655  S
C517        C602   1.499       .  S
N520        C525   1.354       .  A
N520        C524   1.355       .  A
N520        H552   1.035       .  S
N521        C528   1.352       .  A
N521        C529   1.351       .  A
N522        C527   1.356       .  A
N522        C526   1.355       .  A
N522        H553   1.034       .  S
N523        C530   1.351       .  A
N523        C531   1.351       .  A
C524        C532   1.387       .  A
C524        C540   1.418       .  A
C525        C541   1.417       .  A
C525        C533   1.387       .  A
C526        C534   1.387       .  A
C526        C543   1.420       .  A
C527        C542   1.421       .  A
C527        C535   1.387       .  A
C528        C540   1.418       .  A
C528        C536   1.387       .  A
C529        C543   1.418       .  A
C529        C537   1.386       .  A
C530        C538   1.385       .  A
C530        C541   1.416       .  A
C531        C539   1.387       .  A
C531        C542   1.419       .  A
C532        H544   1.082       .  S
C532        C533   1.371       .  A
C533        H545   1.082       .  S
C534        H546   1.082       .  S
C534        C535   1.373       .  A
C535        H547   1.082       .  S
C536        H548   1.082       .  S
C536        C537   1.374       .  A
C537        H549   1.082       .  S
C538        H550   1.082       .  S
C538        C539   1.372       .  A
C539        H551   1.082       .  S
C540        C672   1.501       .  S
C541        C686   1.498       .  S
C542        C661   1.502       .  S
C543        C644   1.501       .  S
N554        C559   1.356       .  A
N554        C558   1.352       .  A
N554        H586   1.035   1_565  S
N555        C562   1.350       .  A
N555        C563   1.352   1_565  A
N556        C561   1.353       .  A
N556        C560   1.357       .  A
N556        H587   1.032   1_545  S
N557        C564   1.352   1_545  A
N557        C565   1.350       .  A
C558        C566   1.387       .  A
C558        C574   1.416       .  A
C559        C575   1.415       .  A
C559        C567   1.386       .  A
C560        C568   1.387       .  A
C560        C577   1.420       .  A
C561        C576   1.418       .  A
C561        C569   1.387       .  A
C562        C574   1.418       .  A
C562        C570   1.387       .  A
C563        C577   1.418       .  A
C563        C571   1.386   1_545  A
C564        C572   1.386   1_565  A
C564        C575   1.417       .  A
C565        C573   1.387       .  A
C565        C576   1.418       .  A
C566        H578   1.083       .  S
C566        C567   1.372       .  A
C567        H579   1.082       .  S
C568        H580   1.082       .  S
C568        C569   1.373       .  A
C569        H581   1.082       .  S
C570        H582   1.081       .  S
C570        C571   1.372       .  A
C571        H583   1.081   1_565  S
C572        H584   1.082       .  S
C572        C573   1.374       .  A
C573        H585   1.082       .  S
C574        C633   1.498       .  S
C575        C616   1.502       .  S
C576        C591   1.498       .  S
C577        C605   1.505       .  S
C588        C589   1.419   1_545  A
C589        C590   1.409       .  A
C589        C594   1.451       .  S
C590        C591   1.410   1_565  A
C590        C597   1.453       .  S
C592        C593   1.414       .  A
C592        C595   1.451       .  S
C593        C596   1.450       .  S
C594        N601   1.158       .  T
C595        N600   1.157       .  T
C596        N598   1.158       .  T
C597        N599   1.157       .  T
C602        C607   1.418   1_545  A
C603        C604   1.415       .  A
C603        C608   1.450       .  S
C604        C611   1.451       .  S
C605        C606   1.413   1_545  A
C606        C607   1.411       .  A
C606        C609   1.452       .  S
C607        C610   1.452       .  S
C608        N615   1.157       .  T
C609        N614   1.157       .  T
C610        N612   1.158       .  T
C611        N613   1.157       .  T
C616        C617   1.410       .  A
C617        C618   1.414       .  A
C617        C622   1.450       .  S
C618        C619   1.419       .  A
C618        C625   1.450       .  S
C620        C621   1.412       .  A
C620        C623   1.452       .  S
C621        C624   1.451       .  S
C622        N629   1.157       .  T
C623        N628   1.158       .  T
C624        N626   1.157       .  T
C625        N627   1.157       .  T
C630        C635   1.419       .  A
C631        C632   1.407       .  A
C631        C636   1.452       .  S
C632        C639   1.453       .  S
C633        C634   1.411       .  A
C634        C635   1.412       .  A
C634        C637   1.451       .  S
C635        C638   1.450       .  S
C636        N643   1.158       .  T
C637        N642   1.157       .  T
C638        N640   1.157       .  T
C639        N641   1.157       .  T
C644       C1577   1.410       .  A
C644        C649   1.410       .  A
C645       C1576   1.410   1_455  A
C645        C646   1.410       .  A
C645        C650   1.453       .  S
C646       C1579   1.421   1_455  A
C646        C653   1.451       .  S
C647       C1414   1.503       .  S
C647       C1578   1.421       .  A
C647        C648   1.423       .  A
C648        C649   1.415       .  A
C648        C651   1.451       .  S
C649        C652   1.451       .  S
C650        N657   1.157       .  T
C651        N656   1.158       .  T
C652        N654   1.157       .  T
C653        N655   1.158       .  T
C658        C659   1.421       .  A
C658       C1595   1.420       .  A
C659        C660   1.414       .  A
C659        C664   1.451       .  S
C660        C661   1.412       .  A
C660        C667   1.452       .  S
C661       C1594   1.411       .  A
C662       C1593   1.411   1_455  A
C662        C663   1.411       .  A
C662        C665   1.453       .  S
C663       C1590   1.420   1_455  A
C663        C666   1.451       .  S
C664        N671   1.158       .  T
C665        N670   1.157       .  T
C666        N668   1.158       .  T
C667        N669   1.157       .  T
C672        C673   1.411       .  A
C672       C1609   1.411       .  A
C673        C674   1.410       .  A
C673        C678   1.453       .  S
C674        C675   1.420       .  A
C674        C681   1.452       .  S
C675       C1419   1.499       .  S
C675       C1608   1.420       .  A
C676       C1607   1.420       .  A
C676        C677   1.414       .  A
C676        C679   1.450       .  S
C677       C1604   1.411       .  A
C677        C680   1.451       .  S
C678        N685   1.157       .  T
C679        N684   1.157       .  T
C680        N682   1.157       .  T
C681        N683   1.158       .  T
C686       C1619   1.411       .  A
C686        C691   1.410       .  A
C687       C1618   1.411       .  A
C687        C688   1.413       .  A
C687        C692   1.451       .  S
C688       C1621   1.420       .  A
C688        C695   1.450       .  S
C689       C1620   1.420       .  A
C689        C690   1.419       .  A
C690        C691   1.409       .  A
C690        C693   1.452       .  S
C691        C694   1.452       .  S
C692        N699   1.157       .  T
C693        N698   1.158       .  T
C694        N696   1.157       .  T
C695        N697   1.158       .  T
C700        C737   1.462       .  S
C700        C922   1.496       .  S
C700       N1650   1.354       .  A
N701        N718   1.326       .  A
N701       N1655   1.318   1_455  A
C702        C740   1.462       .  S
C702        N727   1.337       .  A
C702        H747   1.081       .  S
H703        C744   1.081       .  S
C704       C1640   1.464   1_455  S
C704        N728   1.337       .  A
C704        H733   1.080       .  S
Co705       N745   2.072       .  S
Co705       N721   2.092       .  S
Co705     Cl1215   2.454       .  S
N706        C744   1.339       .  A
N706       Co707   2.083   1_556  S
Co707       N710   2.091   1_554  S
Co707     Cl1448   2.449       .  S
C708       C1636   1.464       .  S
C708        C891   1.499       .  S
C708        N746   1.354       .  A
N709        N739   1.327       .  A
N709       Co742   2.094   1_556  S
N710       N1660   1.318       .  A
N710        N746   1.326       .  A
N711        N721   1.327       .  A
H712        C737   1.081       .  S
N713        N734   1.325       .  A
N714       N1664   1.318       .  A
N714        N719   1.326       .  A
C715        C743   1.466   1_655  S
C715       C1812   1.503       .  S
C715       N1651   1.354       .  A
N716        C731   1.339       .  A
C717       C1652   1.461       .  S
C717        N745   1.336       .  A
C717        H751   1.081       .  S
N718       C1632   1.354       .  A
N719       C1647   1.354       .  A
C720       C1649   1.461   1_455  S
C720       C1840   1.499       .  S
C720        N741   1.355       .  A
N722        C748   1.338       .  A
N722       Co738   2.080       .  S
N723        C737   1.336       .  A
N723       N1633   1.318       .  A
N724        N752   1.326       .  A
H725        C748   1.081       .  S
H726        C743   1.080       .  S
N728       N1642   1.318   1_455  A
N728       Co742   2.077   1_556  S
N729        N741   1.327       .  A
N729       N1677   1.319   1_455  A
N729       Co738   2.100       .  S
C730        C863   1.490       .  S
C730        N734   1.350       .  A
C731        C750   1.464   1_565  S
C731        H735   1.081       .  S
N732        C743   1.336       .  A
N732       N1646   1.318   1_455  A
C736        N752   1.354       .  A
N745       N1661   1.319       .  A
Cl749     Co1171   2.454       .  S
Cl749     Co1406   2.449       .  S
C750        C835   1.499       .  S
N753        C758   1.354       .  A
N753        C757   1.355       .  A
N753        H785   1.035       .  S
N754        C761   1.352       .  A
N754        C762   1.351       .  A
N755        C760   1.356       .  A
N755        C759   1.355       .  A
N755        H786   1.034       .  S
N756        C763   1.351       .  A
N756        C764   1.351       .  A
C757        C765   1.387       .  A
C757        C773   1.418       .  A
C758        C774   1.417       .  A
C758        C766   1.387       .  A
C759        C767   1.387       .  A
C759        C776   1.420       .  A
C760        C775   1.421       .  A
C760        C768   1.387       .  A
C761        C773   1.418       .  A
C761        C769   1.387       .  A
C762        C776   1.418       .  A
C762        C770   1.386       .  A
C763        C771   1.385       .  A
C763        C774   1.416       .  A
C764        C772   1.387       .  A
C764        C775   1.419       .  A
C765        H777   1.082       .  S
C765        C766   1.371       .  A
C766        H778   1.082       .  S
C767        H779   1.082       .  S
C767        C768   1.373       .  A
C768        H780   1.082       .  S
C769        H781   1.082       .  S
C769        C770   1.374       .  A
C770        H782   1.082       .  S
C771        H783   1.082       .  S
C771        C772   1.372       .  A
C772        H784   1.082       .  S
C773        C905   1.501       .  S
C774        C919   1.498       .  S
C775        C894   1.502       .  S
C776        C877   1.501       .  S
N787        C792   1.356       .  A
N787        C791   1.352       .  A
N787        H819   1.035   1_565  S
N788        C795   1.350       .  A
N788        C796   1.352   1_565  A
N789        C794   1.353       .  A
N789        C793   1.357       .  A
N789        H820   1.032   1_545  S
N790        C797   1.352   1_545  A
N790        C798   1.350       .  A
C791        C799   1.387       .  A
C791        C807   1.416       .  A
C792        C808   1.415       .  A
C792        C800   1.386       .  A
C793        C801   1.387       .  A
C793        C810   1.420       .  A
C794        C809   1.418       .  A
C794        C802   1.387       .  A
C795        C807   1.418       .  A
C795        C803   1.387       .  A
C796        C810   1.418       .  A
C796        C804   1.386   1_545  A
C797        C805   1.386   1_565  A
C797        C808   1.417       .  A
C798        C806   1.387       .  A
C798        C809   1.418       .  A
C799        H811   1.083       .  S
C799        C800   1.372       .  A
C800        H812   1.082       .  S
C801        H813   1.082       .  S
C801        C802   1.373       .  A
C802        H814   1.082       .  S
C803        H815   1.081       .  S
C803        C804   1.372       .  A
C804        H816   1.081   1_565  S
C805        H817   1.082       .  S
C805        C806   1.374       .  A
C806        H818   1.082       .  S
C807        C866   1.498       .  S
C808        C849   1.502       .  S
C809        C824   1.498       .  S
C810        C838   1.505       .  S
C821        C822   1.419   1_545  A
C822        C823   1.409       .  A
C822        C827   1.451       .  S
C823        C824   1.410   1_565  A
C823        C830   1.453       .  S
C825        C826   1.414       .  A
C825        C828   1.451       .  S
C826        C829   1.450       .  S
C827        N834   1.158       .  T
C828        N833   1.157       .  T
C829        N831   1.158       .  T
C830        N832   1.157       .  T
C835        C840   1.418   1_545  A
C836        C837   1.415       .  A
C836        C841   1.450       .  S
C837        C844   1.451       .  S
C838        C839   1.413   1_545  A
C839        C840   1.411       .  A
C839        C842   1.452       .  S
C840        C843   1.452       .  S
C841        N848   1.157       .  T
C842        N847   1.157       .  T
C843        N845   1.158       .  T
C844        N846   1.157       .  T
C849        C850   1.410       .  A
C850        C851   1.414       .  A
C850        C855   1.450       .  S
C851        C852   1.419       .  A
C851        C858   1.450       .  S
C853        C854   1.412       .  A
C853        C856   1.452       .  S
C854        C857   1.451       .  S
C855        N862   1.157       .  T
C856        N861   1.158       .  T
C857        N859   1.157       .  T
C858        N860   1.157       .  T
C863        C868   1.419       .  A
C864        C865   1.407       .  A
C864        C869   1.452       .  S
C865        C872   1.453       .  S
C866        C867   1.411       .  A
C867        C868   1.412       .  A
C867        C870   1.451       .  S
C868        C871   1.450       .  S
C869        N876   1.158       .  T
C870        N875   1.157       .  T
C871        N873   1.157       .  T
C872        N874   1.157       .  T
C877       C1810   1.410       .  A
C877        C882   1.410       .  A
C878       C1809   1.410   1_455  A
C878        C879   1.410       .  A
C878        C883   1.453       .  S
C879       C1812   1.421   1_455  A
C879        C886   1.451       .  S
C880       C1647   1.503       .  S
C880       C1811   1.421       .  A
C880        C881   1.423       .  A
C881        C882   1.415       .  A
C881        C884   1.451       .  S
C882        C885   1.451       .  S
C883        N890   1.157       .  T
C884        N889   1.158       .  T
C885        N887   1.157       .  T
C886        N888   1.158       .  T
C891        C892   1.421       .  A
C891       C1828   1.420       .  A
C892        C893   1.414       .  A
C892        C897   1.451       .  S
C893        C894   1.412       .  A
C893        C900   1.452       .  S
C894       C1827   1.411       .  A
C895       C1826   1.411   1_455  A
C895        C896   1.411       .  A
C895        C898   1.453       .  S
C896       C1823   1.420   1_455  A
C896        C899   1.451       .  S
C897        N904   1.158       .  T
C898        N903   1.157       .  T
C899        N901   1.158       .  T
C900        N902   1.157       .  T
C905        C906   1.411       .  A
C905       C1842   1.411       .  A
C906        C907   1.410       .  A
C906        C911   1.453       .  S
C907        C908   1.420       .  A
C907        C914   1.452       .  S
C908       C1652   1.499       .  S
C908       C1841   1.420       .  A
C909       C1840   1.420       .  A
C909        C910   1.414       .  A
C909        C912   1.450       .  S
C910       C1837   1.411       .  A
C910        C913   1.451       .  S
C911        N918   1.157       .  T
C912        N917   1.157       .  T
C913        N915   1.157       .  T
C914        N916   1.158       .  T
C919       C1852   1.411       .  A
C919        C924   1.410       .  A
C920       C1851   1.411       .  A
C920        C921   1.413       .  A
C920        C925   1.451       .  S
C921       C1854   1.420       .  A
C921        C928   1.450       .  S
C922       C1853   1.420       .  A
C922        C923   1.419       .  A
C923        C924   1.409       .  A
C923        C926   1.452       .  S
C924        C927   1.452       .  S
C925        N932   1.157       .  T
C926        N931   1.158       .  T
C927        N929   1.157       .  T
C928        N930   1.158       .  T
C933        C970   1.462   1_455  S
C933       C1155   1.496       .  S
N934        N951   1.326       .  A
N934      Co1204   2.093       .  S
C935        C973   1.462   1_545  S
C935        N960   1.337       .  A
C935        H980   1.081       .  S
H936        C977   1.081       .  S
C937        N961   1.337       .  A
C937        H966   1.080       .  S
Co938      N1189   2.074   1_554  S
Co938      N1179   2.084   1_554  S
Co938       N978   2.072       .  S
Co938       N954   2.092       .  S
N939        C977   1.339       .  A
N939       N1412   1.319   1_545  A
N939       Co940   2.083       .  S
Co940       N943   2.091       .  S
Co940      N1193   2.079       .  S
Co940      N1180   2.093       .  S
C941       C1124   1.499       .  S
C941        N979   1.354       .  A
N942       N1415   1.320   1_545  A
N942        N972   1.327       .  A
N942       Co975   2.094       .  S
N943        N979   1.326       .  A
N944       C1439   1.354       .  A
N944        N954   1.327       .  A
H945        C970   1.081       .  S
N946       N1405   1.319       .  A
N946        N967   1.325       .  A
N946      Co1171   2.084       .  S
N947        N952   1.326       .  A
N947      Co1173   2.093       .  S
C948        C976   1.466       .  S
N949        C964   1.339       .  A
N949       N1408   1.320       .  A
N949      Co1204   2.086       .  S
C950        N978   1.336       .  A
C950        H984   1.081       .  S
C953        N974   1.355       .  A
N954       N1426   1.319       .  A
N955        C981   1.338       .  A
N955       N1423   1.318       .  A
N955       Co971   2.080       .  S
N956        C970   1.336       .  A
N956      Co1171   2.074       .  S
N957       N1421   1.318   1_545  A
N957        N985   1.326       .  A
N957      Co1208   2.092       .  S
H958        C981   1.081       .  S
H959        C976   1.080       .  S
N960       N1420   1.319   1_545  A
N960      Co1173   2.079       .  S
N961       Co975   2.077       .  S
N962        N974   1.327       .  A
N962       Co971   2.100       .  S
C963       C1443   1.463       .  S
C963       C1096   1.490       .  S
C963        N967   1.350       .  A
C964        C983   1.464       .  S
C964        H968   1.081       .  S
N965        C976   1.336       .  A
N965      Co1208   2.077       .  S
C969       C1447   1.465   1_545  S
C969       C1520   1.501       .  S
C969        N985   1.353       .  A
Co971      N1167   2.093   1_554  S
Co971      N1182   2.086   1_554  S
Co971     Cl1448   2.452       .  S
N972       C1449   1.353       .  A
C973       C1551   1.497       .  S
C973       N1410   1.354       .  A
Co975      N1190   2.092       .  S
Co975      N1198   2.077       .  S
Co975     Cl1215   2.453   1_545  S
C977       C1429   1.463   1_545  S
C981       C1435   1.465       .  S
Cl982     Co1437   2.452       .  S
Cl982     Co1208   2.453   1_565  S
C983       C1068   1.499       .  S
C983       N1438   1.353       .  A
N986        C991   1.354       .  A
N986        C990   1.355       .  A
N986       H1018   1.035   1_455  S
N987        C994   1.352       .  A
N987        C995   1.351       .  A
N988        C993   1.356       .  A
N988        C992   1.355       .  A
N988       H1019   1.034   1_655  S
N989        C996   1.351       .  A
N989        C997   1.351       .  A
C990        C998   1.387       .  A
C990       C1006   1.418       .  A
C991       C1007   1.417       .  A
C991        C999   1.387       .  A
C992       C1000   1.387       .  A
C992       C1009   1.420       .  A
C993       C1008   1.421       .  A
C993       C1001   1.387       .  A
C994       C1006   1.418   1_655  A
C994       C1002   1.387       .  A
C995       C1009   1.418       .  A
C995       C1003   1.386       .  A
C996       C1004   1.385       .  A
C996       C1007   1.416   1_655  A
C997       C1005   1.387       .  A
C997       C1008   1.419       .  A
C998       H1010   1.082       .  S
C998        C999   1.371       .  A
C999       H1011   1.082       .  S
C1000      H1012   1.082       .  S
C1000      C1001   1.373       .  A
C1001      H1013   1.082       .  S
C1002      H1014   1.082       .  S
C1002      C1003   1.374       .  A
C1003      H1015   1.082       .  S
C1004      H1016   1.082       .  S
C1004      C1005   1.372       .  A
C1005      H1017   1.082       .  S
C1006      C1138   1.501       .  S
C1007      C1152   1.498       .  S
C1008      C1127   1.502       .  S
C1009      C1110   1.501       .  S
N1020      C1025   1.356       .  A
N1020      C1024   1.352       .  A
N1020      H1052   1.035       .  S
N1021      C1028   1.350       .  A
N1021      C1029   1.352       .  A
N1022      C1027   1.353       .  A
N1022      C1026   1.357       .  A
N1022      H1053   1.032       .  S
N1023      C1030   1.352       .  A
N1023      C1031   1.350       .  A
C1024      C1032   1.387       .  A
C1024      C1040   1.416       .  A
C1025      C1041   1.415       .  A
C1025      C1033   1.386       .  A
C1026      C1034   1.387       .  A
C1026      C1043   1.420       .  A
C1027      C1042   1.418       .  A
C1027      C1035   1.387       .  A
C1028      C1040   1.418       .  A
C1028      C1036   1.387       .  A
C1029      C1043   1.418       .  A
C1029      C1037   1.386       .  A
C1030      C1038   1.386       .  A
C1030      C1041   1.417       .  A
C1031      C1039   1.387       .  A
C1031      C1042   1.418       .  A
C1032      H1044   1.083       .  S
C1032      C1033   1.372       .  A
C1033      H1045   1.082       .  S
C1034      H1046   1.082       .  S
C1034      C1035   1.373       .  A
C1035      H1047   1.082       .  S
C1036      H1048   1.081       .  S
C1036      C1037   1.372       .  A
C1037      H1049   1.081       .  S
C1038      H1050   1.082       .  S
C1038      C1039   1.374       .  A
C1039      H1051   1.082       .  S
C1040      C1099   1.498       .  S
C1041      C1082   1.502       .  S
C1042      C1057   1.498       .  S
C1043      C1071   1.505       .  S
C1054      C1435   1.501       .  S
C1054      C1055   1.419       .  A
C1054      C1525   1.423       .  A
C1055      C1056   1.409       .  A
C1055      C1060   1.451       .  S
C1056      C1057   1.410       .  A
C1056      C1063   1.453       .  S
C1057      C1524   1.409       .  A
C1058      C1523   1.409       .  A
C1058      C1059   1.414       .  A
C1058      C1061   1.451       .  S
C1059      C1520   1.423       .  A
C1059      C1062   1.450       .  S
C1060      N1067   1.158       .  T
C1061      N1066   1.157       .  T
C1062      N1064   1.158       .  T
C1063      N1065   1.157       .  T
C1068      C1535   1.420       .  A
C1068      C1073   1.418       .  A
C1069      C1534   1.420       .  A
C1069      C1070   1.415       .  A
C1069      C1074   1.450       .  S
C1070      C1537   1.412       .  A
C1070      C1077   1.451       .  S
C1071      C1536   1.412       .  A
C1071      C1072   1.413       .  A
C1072      C1073   1.411       .  A
C1072      C1075   1.452       .  S
C1073      C1076   1.452       .  S
C1074      N1081   1.157       .  T
C1075      N1080   1.157       .  T
C1076      N1078   1.158       .  T
C1077      N1079   1.157       .  T
C1082      C1083   1.410       .  A
C1082      C1553   1.412       .  A
C1083      C1084   1.414       .  A
C1083      C1088   1.450       .  S
C1084      C1085   1.419       .  A
C1084      C1091   1.450       .  S
C1085      C1439   1.497       .  S
C1085      C1552   1.419       .  A
C1086      C1551   1.419   1_545  A
C1086      C1087   1.412       .  A
C1086      C1089   1.452       .  S
C1087      C1548   1.412   1_545  A
C1087      C1090   1.451       .  S
C1088      N1095   1.157       .  T
C1089      N1094   1.158       .  T
C1090      N1092   1.157       .  T
C1091      N1093   1.157       .  T
C1096      C1563   1.414       .  A
C1096      C1101   1.419       .  A
C1097      C1562   1.414   1_545  A
C1097      C1098   1.407       .  A
C1097      C1102   1.452       .  S
C1098      C1565   1.414   1_545  A
C1098      C1105   1.453       .  S
C1099      C1564   1.414       .  A
C1099      C1100   1.411       .  A
C1100      C1101   1.412       .  A
C1100      C1103   1.451       .  S
C1101      C1104   1.450       .  S
C1102      N1109   1.158       .  T
C1103      N1108   1.157       .  T
C1104      N1106   1.157       .  T
C1105      N1107   1.157       .  T
C1110      C1115   1.410       .  A
C1111      C1112   1.410       .  A
C1111      C1116   1.453       .  S
C1112      C1119   1.451       .  S
C1113      C1114   1.423       .  A
C1114      C1115   1.415       .  A
C1114      C1117   1.451       .  S
C1115      C1118   1.451       .  S
C1116      N1123   1.157       .  T
C1117      N1122   1.158       .  T
C1118      N1120   1.157       .  T
C1119      N1121   1.158       .  T
C1124      C1125   1.421       .  A
C1125      C1126   1.414       .  A
C1125      C1130   1.451       .  S
C1126      C1127   1.412       .  A
C1126      C1133   1.452       .  S
C1128      C1129   1.411       .  A
C1128      C1131   1.453       .  S
C1129      C1132   1.451       .  S
C1130      N1137   1.158       .  T
C1131      N1136   1.157       .  T
C1132      N1134   1.158       .  T
C1133      N1135   1.157       .  T
C1138      C1139   1.411   1_455  A
C1139      C1140   1.410       .  A
C1139      C1144   1.453       .  S
C1140      C1141   1.420   1_655  A
C1140      C1147   1.452       .  S
C1142      C1143   1.414       .  A
C1142      C1145   1.450       .  S
C1143      C1146   1.451       .  S
C1144      N1151   1.157       .  T
C1145      N1150   1.157       .  T
C1146      N1148   1.157       .  T
C1147      N1149   1.158       .  T
C1152      C1157   1.410   1_455  A
C1153      C1154   1.413       .  A
C1153      C1158   1.451       .  S
C1154      C1161   1.450       .  S
C1155      C1156   1.419   1_455  A
C1156      C1157   1.409       .  A
C1156      C1159   1.452       .  S
C1157      C1160   1.452       .  S
C1158      N1165   1.157       .  T
C1159      N1164   1.158       .  T
C1160      N1162   1.157       .  T
C1161      N1163   1.158       .  T
C1166      C1203   1.462   1_455  S
C1166      C1388   1.496       .  S
N1167      N1184   1.326       .  A
C1168      C1206   1.462   1_545  S
C1168      N1193   1.337       .  A
C1168      H1213   1.081       .  S
H1169      C1210   1.081       .  S
C1170      N1194   1.337       .  A
C1170      H1199   1.080       .  S
Co1171     N1211   2.072       .  S
Co1171     N1187   2.092       .  S
N1172      C1210   1.339       .  A
N1172      N1645   1.319   1_545  A
N1172     Co1173   2.083   1_556  S
Co1173     N1176   2.091   1_554  S
C1174      C1357   1.499       .  S
C1174      N1212   1.354       .  A
N1175      N1648   1.320   1_545  A
N1175      N1205   1.327       .  A
N1175     Co1208   2.094   1_556  S
N1176      N1212   1.326       .  A
N1177      C1672   1.354       .  A
N1177      N1187   1.327       .  A
H1178      C1203   1.081       .  S
N1179      N1638   1.319       .  A
N1179      N1200   1.325       .  A
N1180      N1185   1.326       .  A
C1181      C1209   1.466       .  S
N1182      C1197   1.339       .  A
N1182      N1641   1.320       .  A
C1183      N1211   1.336       .  A
C1183      H1217   1.081       .  S
C1186      N1207   1.355       .  A
N1187      N1659   1.319       .  A
N1188      C1214   1.338       .  A
N1188      N1656   1.318       .  A
N1188     Co1204   2.080       .  S
N1189      C1203   1.336       .  A
N1190      N1654   1.318   1_545  A
N1190      N1218   1.326       .  A
H1191      C1214   1.081       .  S
H1192      C1209   1.080       .  S
N1193      N1653   1.319   1_545  A
N1194     Co1208   2.077   1_556  S
N1195      N1207   1.327       .  A
N1195     Co1204   2.100       .  S
C1196      C1676   1.463       .  S
C1196      C1329   1.490       .  S
C1196      N1200   1.350       .  A
C1197      C1216   1.464       .  S
C1197      H1201   1.081       .  S
N1198      C1209   1.336       .  A
C1202      C1680   1.465   1_545  S
C1202      C1753   1.501       .  S
C1202      N1218   1.354       .  A
Co1204    Cl1681   2.452       .  S
N1205      C1682   1.353       .  A
C1206      C1784   1.497       .  S
C1206      N1643   1.354       .  A
C1210      C1662   1.463   1_545  S
C1214      C1668   1.465       .  S
Cl1215    Co1670   2.452       .  S
C1216      C1301   1.499       .  S
C1216      N1671   1.353       .  A
N1219      C1224   1.354       .  A
N1219      C1223   1.355       .  A
N1219      H1251   1.035   1_455  S
N1220      C1227   1.352       .  A
N1220      C1228   1.351       .  A
N1221      C1226   1.356       .  A
N1221      C1225   1.355       .  A
N1221      H1252   1.034   1_655  S
N1222      C1229   1.351       .  A
N1222      C1230   1.351       .  A
C1223      C1231   1.387       .  A
C1223      C1239   1.418       .  A
C1224      C1240   1.417       .  A
C1224      C1232   1.387       .  A
C1225      C1233   1.387       .  A
C1225      C1242   1.420       .  A
C1226      C1241   1.421       .  A
C1226      C1234   1.387       .  A
C1227      C1239   1.418   1_655  A
C1227      C1235   1.387       .  A
C1228      C1242   1.418       .  A
C1228      C1236   1.386       .  A
C1229      C1237   1.385       .  A
C1229      C1240   1.416   1_655  A
C1230      C1238   1.387       .  A
C1230      C1241   1.419       .  A
C1231      H1243   1.082       .  S
C1231      C1232   1.371       .  A
C1232      H1244   1.082       .  S
C1233      H1245   1.082       .  S
C1233      C1234   1.373       .  A
C1234      H1246   1.082       .  S
C1235      H1247   1.082       .  S
C1235      C1236   1.374       .  A
C1236      H1248   1.082       .  S
C1237      H1249   1.082       .  S
C1237      C1238   1.372       .  A
C1238      H1250   1.082       .  S
C1239      C1371   1.501       .  S
C1240      C1385   1.498       .  S
C1241      C1360   1.502       .  S
C1242      C1343   1.501       .  S
N1253      C1258   1.356       .  A
N1253      C1257   1.352       .  A
N1253      H1285   1.035       .  S
N1254      C1261   1.350       .  A
N1254      C1262   1.352       .  A
N1255      C1260   1.353       .  A
N1255      C1259   1.357       .  A
N1255      H1286   1.032       .  S
N1256      C1263   1.352       .  A
N1256      C1264   1.350       .  A
C1257      C1265   1.387       .  A
C1257      C1273   1.416       .  A
C1258      C1274   1.415       .  A
C1258      C1266   1.386       .  A
C1259      C1267   1.387       .  A
C1259      C1276   1.420       .  A
C1260      C1275   1.418       .  A
C1260      C1268   1.387       .  A
C1261      C1273   1.418       .  A
C1261      C1269   1.387       .  A
C1262      C1276   1.418       .  A
C1262      C1270   1.386       .  A
C1263      C1271   1.386       .  A
C1263      C1274   1.417       .  A
C1264      C1272   1.387       .  A
C1264      C1275   1.418       .  A
C1265      H1277   1.083       .  S
C1265      C1266   1.372       .  A
C1266      H1278   1.082       .  S
C1267      H1279   1.082       .  S
C1267      C1268   1.373       .  A
C1268      H1280   1.082       .  S
C1269      H1281   1.081       .  S
C1269      C1270   1.372       .  A
C1270      H1282   1.081       .  S
C1271      H1283   1.082       .  S
C1271      C1272   1.374       .  A
C1272      H1284   1.082       .  S
C1273      C1332   1.498       .  S
C1274      C1315   1.502       .  S
C1275      C1290   1.498       .  S
C1276      C1304   1.505       .  S
C1287      C1668   1.501       .  S
C1287      C1288   1.419       .  A
C1287      C1758   1.423       .  A
C1288      C1289   1.409       .  A
C1288      C1293   1.451       .  S
C1289      C1290   1.410       .  A
C1289      C1296   1.453       .  S
C1290      C1757   1.409       .  A
C1291      C1756   1.409       .  A
C1291      C1292   1.414       .  A
C1291      C1294   1.451       .  S
C1292      C1753   1.423       .  A
C1292      C1295   1.450       .  S
C1293      N1300   1.158       .  T
C1294      N1299   1.157       .  T
C1295      N1297   1.158       .  T
C1296      N1298   1.157       .  T
C1301      C1768   1.420       .  A
C1301      C1306   1.418       .  A
C1302      C1767   1.420       .  A
C1302      C1303   1.415       .  A
C1302      C1307   1.450       .  S
C1303      C1770   1.412       .  A
C1303      C1310   1.451       .  S
C1304      C1769   1.412       .  A
C1304      C1305   1.413       .  A
C1305      C1306   1.411       .  A
C1305      C1308   1.452       .  S
C1306      C1309   1.452       .  S
C1307      N1314   1.157       .  T
C1308      N1313   1.157       .  T
C1309      N1311   1.158       .  T
C1310      N1312   1.157       .  T
C1315      C1316   1.410       .  A
C1315      C1786   1.412       .  A
C1316      C1317   1.414       .  A
C1316      C1321   1.450       .  S
C1317      C1318   1.419       .  A
C1317      C1324   1.450       .  S
C1318      C1672   1.497       .  S
C1318      C1785   1.419       .  A
C1319      C1784   1.419   1_545  A
C1319      C1320   1.412       .  A
C1319      C1322   1.452       .  S
C1320      C1781   1.412   1_545  A
C1320      C1323   1.451       .  S
C1321      N1328   1.157       .  T
C1322      N1327   1.158       .  T
C1323      N1325   1.157       .  T
C1324      N1326   1.157       .  T
C1329      C1796   1.414       .  A
C1329      C1334   1.419       .  A
C1330      C1795   1.414   1_545  A
C1330      C1331   1.407       .  A
C1330      C1335   1.452       .  S
C1331      C1798   1.414   1_545  A
C1331      C1338   1.453       .  S
C1332      C1797   1.414       .  A
C1332      C1333   1.411       .  A
C1333      C1334   1.412       .  A
C1333      C1336   1.451       .  S
C1334      C1337   1.450       .  S
C1335      N1342   1.158       .  T
C1336      N1341   1.157       .  T
C1337      N1339   1.157       .  T
C1338      N1340   1.157       .  T
C1343      C1348   1.410       .  A
C1344      C1345   1.410       .  A
C1344      C1349   1.453       .  S
C1345      C1352   1.451       .  S
C1346      C1347   1.423       .  A
C1347      C1348   1.415       .  A
C1347      C1350   1.451       .  S
C1348      C1351   1.451       .  S
C1349      N1356   1.157       .  T
C1350      N1355   1.158       .  T
C1351      N1353   1.157       .  T
C1352      N1354   1.158       .  T
C1357      C1358   1.421       .  A
C1358      C1359   1.414       .  A
C1358      C1363   1.451       .  S
C1359      C1360   1.412       .  A
C1359      C1366   1.452       .  S
C1361      C1362   1.411       .  A
C1361      C1364   1.453       .  S
C1362      C1365   1.451       .  S
C1363      N1370   1.158       .  T
C1364      N1369   1.157       .  T
C1365      N1367   1.158       .  T
C1366      N1368   1.157       .  T
C1371      C1372   1.411   1_455  A
C1372      C1373   1.410       .  A
C1372      C1377   1.453       .  S
C1373      C1374   1.420   1_655  A
C1373      C1380   1.452       .  S
C1375      C1376   1.414       .  A
C1375      C1378   1.450       .  S
C1376      C1379   1.451       .  S
C1377      N1384   1.157       .  T
C1378      N1383   1.157       .  T
C1379      N1381   1.157       .  T
C1380      N1382   1.158       .  T
C1385      C1390   1.410   1_455  A
C1386      C1387   1.413       .  A
C1386      C1391   1.451       .  S
C1387      C1394   1.450       .  S
C1388      C1389   1.419   1_455  A
C1389      C1390   1.409       .  A
C1389      C1392   1.452       .  S
C1390      C1393   1.452       .  S
C1391      N1398   1.157       .  T
C1392      N1397   1.158       .  T
C1393      N1395   1.157       .  T
C1394      N1396   1.158       .  T
C1399      C1436   1.462   1_455  S
C1399      C1621   1.496       .  S
N1400      N1417   1.326       .  A
N1400     Co1670   2.093       .  S
C1401      C1439   1.462       .  S
C1401      N1426   1.337       .  A
C1401      H1446   1.081       .  S
H1402      C1443   1.081       .  S
C1403      N1427   1.337       .  A
C1403      H1432   1.080       .  S
Co1404     N1655   2.074   1_554  S
Co1404     N1645   2.084   1_554  S
Co1404     N1444   2.072       .  S
Co1404     N1420   2.092       .  S
N1405      C1443   1.339       .  A
N1405     Co1406   2.083       .  S
Co1406     N1409   2.091       .  S
Co1406     N1659   2.079       .  S
Co1406     N1646   2.093       .  S
C1407      C1590   1.499       .  S
C1407      N1445   1.354       .  A
N1408      N1438   1.327       .  A
N1408     Co1441   2.094       .  S
N1409      N1445   1.326       .  A
N1410      N1420   1.327       .  A
H1411      C1436   1.081       .  S
N1412      N1433   1.325       .  A
N1412     Co1637   2.084       .  S
N1413      N1418   1.326       .  A
N1413     Co1639   2.093       .  S
C1414      C1442   1.466       .  S
N1415      C1430   1.339       .  A
N1415     Co1670   2.086       .  S
C1416      N1444   1.336       .  A
C1416      H1450   1.081       .  S
C1419      N1440   1.355       .  A
N1421      C1447   1.338       .  A
N1421     Co1437   2.080       .  S
N1422      C1436   1.336       .  A
N1422     Co1637   2.074       .  S
N1423      N1451   1.326       .  A
N1423     Co1674   2.092       .  S
H1424      C1447   1.081       .  S
H1425      C1442   1.080       .  S
N1426     Co1639   2.079       .  S
N1427     Co1441   2.077       .  S
N1428      N1440   1.327       .  A
N1428     Co1437   2.100       .  S
C1429      C1562   1.490       .  S
C1429      N1433   1.350       .  A
C1430      C1449   1.464   1_565  S
C1430      H1434   1.081       .  S
N1431      C1442   1.336       .  A
N1431     Co1674   2.077       .  S
C1435      N1451   1.353       .  A
Co1437     N1633   2.093   1_554  S
Co1437     N1648   2.086   1_554  S
Co1441     N1656   2.092       .  S
Co1441     N1664   2.077       .  S
Co1441    Cl1681   2.453       .  S
Cl1448    Co1674   2.453       .  S
C1449      C1534   1.499       .  S
N1452      C1457   1.354       .  A
N1452      C1456   1.355       .  A
N1452      H1484   1.035   1_455  S
N1453      C1460   1.352       .  A
N1453      C1461   1.351       .  A
N1454      C1459   1.356       .  A
N1454      C1458   1.355       .  A
N1454      H1485   1.034   1_655  S
N1455      C1462   1.351       .  A
N1455      C1463   1.351       .  A
C1456      C1464   1.387       .  A
C1456      C1472   1.418       .  A
C1457      C1473   1.417       .  A
C1457      C1465   1.387       .  A
C1458      C1466   1.387       .  A
C1458      C1475   1.420       .  A
C1459      C1474   1.421       .  A
C1459      C1467   1.387       .  A
C1460      C1472   1.418   1_655  A
C1460      C1468   1.387       .  A
C1461      C1475   1.418       .  A
C1461      C1469   1.386       .  A
C1462      C1470   1.385       .  A
C1462      C1473   1.416   1_655  A
C1463      C1471   1.387       .  A
C1463      C1474   1.419       .  A
C1464      H1476   1.082       .  S
C1464      C1465   1.371       .  A
C1465      H1477   1.082       .  S
C1466      H1478   1.082       .  S
C1466      C1467   1.373       .  A
C1467      H1479   1.082       .  S
C1468      H1480   1.082       .  S
C1468      C1469   1.374       .  A
C1469      H1481   1.082       .  S
C1470      H1482   1.082       .  S
C1470      C1471   1.372       .  A
C1471      H1483   1.082       .  S
C1472      C1604   1.501       .  S
C1473      C1618   1.498       .  S
C1474      C1593   1.502       .  S
C1475      C1576   1.501       .  S
N1486      C1491   1.356       .  A
N1486      C1490   1.352       .  A
N1486      H1518   1.035   1_565  S
N1487      C1494   1.350       .  A
N1487      C1495   1.352   1_565  A
N1488      C1493   1.353       .  A
N1488      C1492   1.357       .  A
N1488      H1519   1.032   1_545  S
N1489      C1496   1.352   1_545  A
N1489      C1497   1.350       .  A
C1490      C1498   1.387       .  A
C1490      C1506   1.416       .  A
C1491      C1507   1.415       .  A
C1491      C1499   1.386       .  A
C1492      C1500   1.387       .  A
C1492      C1509   1.420       .  A
C1493      C1508   1.418       .  A
C1493      C1501   1.387       .  A
C1494      C1506   1.418       .  A
C1494      C1502   1.387       .  A
C1495      C1509   1.418       .  A
C1495      C1503   1.386   1_545  A
C1496      C1504   1.386   1_565  A
C1496      C1507   1.417       .  A
C1497      C1505   1.387       .  A
C1497      C1508   1.418       .  A
C1498      H1510   1.083       .  S
C1498      C1499   1.372       .  A
C1499      H1511   1.082       .  S
C1500      H1512   1.082       .  S
C1500      C1501   1.373       .  A
C1501      H1513   1.082       .  S
C1502      H1514   1.081       .  S
C1502      C1503   1.372       .  A
C1503      H1515   1.081   1_565  S
C1504      H1516   1.082       .  S
C1504      C1505   1.374       .  A
C1505      H1517   1.082       .  S
C1506      C1565   1.498       .  S
C1507      C1548   1.502       .  S
C1508      C1523   1.498       .  S
C1509      C1537   1.505       .  S
C1520      C1521   1.419   1_545  A
C1521      C1522   1.409       .  A
C1521      C1526   1.451       .  S
C1522      C1523   1.410   1_565  A
C1522      C1529   1.453       .  S
C1524      C1525   1.414       .  A
C1524      C1527   1.451       .  S
C1525      C1528   1.450       .  S
C1526      N1533   1.158       .  T
C1527      N1532   1.157       .  T
C1528      N1530   1.158       .  T
C1529      N1531   1.157       .  T
C1534      C1539   1.418   1_545  A
C1535      C1536   1.415       .  A
C1535      C1540   1.450       .  S
C1536      C1543   1.451       .  S
C1537      C1538   1.413   1_545  A
C1538      C1539   1.411       .  A
C1538      C1541   1.452       .  S
C1539      C1542   1.452       .  S
C1540      N1547   1.157       .  T
C1541      N1546   1.157       .  T
C1542      N1544   1.158       .  T
C1543      N1545   1.157       .  T
C1548      C1549   1.410       .  A
C1549      C1550   1.414       .  A
C1549      C1554   1.450       .  S
C1550      C1551   1.419       .  A
C1550      C1557   1.450       .  S
C1552      C1553   1.412       .  A
C1552      C1555   1.452       .  S
C1553      C1556   1.451       .  S
C1554      N1561   1.157       .  T
C1555      N1560   1.158       .  T
C1556      N1558   1.157       .  T
C1557      N1559   1.157       .  T
C1562      C1567   1.419       .  A
C1563      C1564   1.407       .  A
C1563      C1568   1.452       .  S
C1564      C1571   1.453       .  S
C1565      C1566   1.411       .  A
C1566      C1567   1.412       .  A
C1566      C1569   1.451       .  S
C1567      C1570   1.450       .  S
C1568      N1575   1.158       .  T
C1569      N1574   1.157       .  T
C1570      N1572   1.157       .  T
C1571      N1573   1.157       .  T
C1576      C1581   1.410       .  A
C1577      C1578   1.410       .  A
C1577      C1582   1.453       .  S
C1578      C1585   1.451       .  S
C1579      C1580   1.423       .  A
C1580      C1581   1.415       .  A
C1580      C1583   1.451       .  S
C1581      C1584   1.451       .  S
C1582      N1589   1.157       .  T
C1583      N1588   1.158       .  T
C1584      N1586   1.157       .  T
C1585      N1587   1.158       .  T
C1590      C1591   1.421       .  A
C1591      C1592   1.414       .  A
C1591      C1596   1.451       .  S
C1592      C1593   1.412       .  A
C1592      C1599   1.452       .  S
C1594      C1595   1.411       .  A
C1594      C1597   1.453       .  S
C1595      C1598   1.451       .  S
C1596      N1603   1.158       .  T
C1597      N1602   1.157       .  T
C1598      N1600   1.158       .  T
C1599      N1601   1.157       .  T
C1604      C1605   1.411   1_455  A
C1605      C1606   1.410       .  A
C1605      C1610   1.453       .  S
C1606      C1607   1.420   1_655  A
C1606      C1613   1.452       .  S
C1608      C1609   1.414       .  A
C1608      C1611   1.450       .  S
C1609      C1612   1.451       .  S
C1610      N1617   1.157       .  T
C1611      N1616   1.157       .  T
C1612      N1614   1.157       .  T
C1613      N1615   1.158       .  T
C1618      C1623   1.410   1_455  A
C1619      C1620   1.413       .  A
C1619      C1624   1.451       .  S
C1620      C1627   1.450       .  S
C1621      C1622   1.419   1_455  A
C1622      C1623   1.409       .  A
C1622      C1625   1.452       .  S
C1623      C1626   1.452       .  S
C1624      N1631   1.157       .  T
C1625      N1630   1.158       .  T
C1626      N1628   1.157       .  T
C1627      N1629   1.158       .  T
C1632      C1669   1.462   1_455  S
C1632      C1854   1.496       .  S
N1633      N1650   1.326       .  A
C1634      C1672   1.462       .  S
C1634      N1659   1.337       .  A
C1634      H1679   1.081       .  S
H1635      C1676   1.081       .  S
C1636      N1660   1.337       .  A
C1636      H1665   1.080       .  S
Co1637     N1677   2.072       .  S
Co1637     N1653   2.092       .  S
N1638      C1676   1.339       .  A
N1638     Co1639   2.083   1_556  S
Co1639     N1642   2.091   1_554  S
C1640      C1823   1.499       .  S
C1640      N1678   1.354       .  A
N1641      N1671   1.327       .  A
N1641     Co1674   2.094   1_556  S
N1642      N1678   1.326       .  A
N1643      N1653   1.327       .  A
H1644      C1669   1.081       .  S
N1645      N1666   1.325       .  A
N1646      N1651   1.326       .  A
C1647      C1675   1.466       .  S
N1648      C1663   1.339       .  A
C1649      N1677   1.336       .  A
C1649      H1683   1.081       .  S
C1652      N1673   1.355       .  A
N1654      C1680   1.338       .  A
N1654     Co1670   2.080       .  S
N1655      C1669   1.336       .  A
N1656      N1684   1.326       .  A
H1657      C1680   1.081       .  S
H1658      C1675   1.080       .  S
N1660     Co1674   2.077   1_556  S
N1661      N1673   1.327       .  A
N1661     Co1670   2.100       .  S
C1662      C1795   1.490       .  S
C1662      N1666   1.350       .  A
C1663      C1682   1.464   1_565  S
C1663      H1667   1.081       .  S
N1664      C1675   1.336       .  A
C1668      N1684   1.354       .  A
C1682      C1767   1.499       .  S
N1685      C1690   1.354       .  A
N1685      C1689   1.355       .  A
N1685      H1717   1.035   1_455  S
N1686      C1693   1.352       .  A
N1686      C1694   1.351       .  A
N1687      C1692   1.356       .  A
N1687      C1691   1.355       .  A
N1687      H1718   1.034   1_655  S
N1688      C1695   1.351       .  A
N1688      C1696   1.351       .  A
C1689      C1697   1.387       .  A
C1689      C1705   1.418       .  A
C1690      C1706   1.417       .  A
C1690      C1698   1.387       .  A
C1691      C1699   1.387       .  A
C1691      C1708   1.420       .  A
C1692      C1707   1.421       .  A
C1692      C1700   1.387       .  A
C1693      C1705   1.418   1_655  A
C1693      C1701   1.387       .  A
C1694      C1708   1.418       .  A
C1694      C1702   1.386       .  A
C1695      C1703   1.385       .  A
C1695      C1706   1.416   1_655  A
C1696      C1704   1.387       .  A
C1696      C1707   1.419       .  A
C1697      H1709   1.082       .  S
C1697      C1698   1.371       .  A
C1698      H1710   1.082       .  S
C1699      H1711   1.082       .  S
C1699      C1700   1.373       .  A
C1700      H1712   1.082       .  S
C1701      H1713   1.082       .  S
C1701      C1702   1.374       .  A
C1702      H1714   1.082       .  S
C1703      H1715   1.082       .  S
C1703      C1704   1.372       .  A
C1704      H1716   1.082       .  S
C1705      C1837   1.501       .  S
C1706      C1851   1.498       .  S
C1707      C1826   1.502       .  S
C1708      C1809   1.501       .  S
N1719      C1724   1.356       .  A
N1719      C1723   1.352       .  A
N1719      H1751   1.035   1_565  S
N1720      C1727   1.350       .  A
N1720      C1728   1.352   1_565  A
N1721      C1726   1.353       .  A
N1721      C1725   1.357       .  A
N1721      H1752   1.032   1_545  S
N1722      C1729   1.352   1_545  A
N1722      C1730   1.350       .  A
C1723      C1731   1.387       .  A
C1723      C1739   1.416       .  A
C1724      C1740   1.415       .  A
C1724      C1732   1.386       .  A
C1725      C1733   1.387       .  A
C1725      C1742   1.420       .  A
C1726      C1741   1.418       .  A
C1726      C1734   1.387       .  A
C1727      C1739   1.418       .  A
C1727      C1735   1.387       .  A
C1728      C1742   1.418       .  A
C1728      C1736   1.386   1_545  A
C1729      C1737   1.386   1_565  A
C1729      C1740   1.417       .  A
C1730      C1738   1.387       .  A
C1730      C1741   1.418       .  A
C1731      H1743   1.083       .  S
C1731      C1732   1.372       .  A
C1732      H1744   1.082       .  S
C1733      H1745   1.082       .  S
C1733      C1734   1.373       .  A
C1734      H1746   1.082       .  S
C1735      H1747   1.081       .  S
C1735      C1736   1.372       .  A
C1736      H1748   1.081   1_565  S
C1737      H1749   1.082       .  S
C1737      C1738   1.374       .  A
C1738      H1750   1.082       .  S
C1739      C1798   1.498       .  S
C1740      C1781   1.502       .  S
C1741      C1756   1.498       .  S
C1742      C1770   1.505       .  S
C1753      C1754   1.419   1_545  A
C1754      C1755   1.409       .  A
C1754      C1759   1.451       .  S
C1755      C1756   1.410   1_565  A
C1755      C1762   1.453       .  S
C1757      C1758   1.414       .  A
C1757      C1760   1.451       .  S
C1758      C1761   1.450       .  S
C1759      N1766   1.158       .  T
C1760      N1765   1.157       .  T
C1761      N1763   1.158       .  T
C1762      N1764   1.157       .  T
C1767      C1772   1.418   1_545  A
C1768      C1769   1.415       .  A
C1768      C1773   1.450       .  S
C1769      C1776   1.451       .  S
C1770      C1771   1.413   1_545  A
C1771      C1772   1.411       .  A
C1771      C1774   1.452       .  S
C1772      C1775   1.452       .  S
C1773      N1780   1.157       .  T
C1774      N1779   1.157       .  T
C1775      N1777   1.158       .  T
C1776      N1778   1.157       .  T
C1781      C1782   1.410       .  A
C1782      C1783   1.414       .  A
C1782      C1787   1.450       .  S
C1783      C1784   1.419       .  A
C1783      C1790   1.450       .  S
C1785      C1786   1.412       .  A
C1785      C1788   1.452       .  S
C1786      C1789   1.451       .  S
C1787      N1794   1.157       .  T
C1788      N1793   1.158       .  T
C1789      N1791   1.157       .  T
C1790      N1792   1.157       .  T
C1795      C1800   1.419       .  A
C1796      C1797   1.407       .  A
C1796      C1801   1.452       .  S
C1797      C1804   1.453       .  S
C1798      C1799   1.411       .  A
C1799      C1800   1.412       .  A
C1799      C1802   1.451       .  S
C1800      C1803   1.450       .  S
C1801      N1808   1.158       .  T
C1802      N1807   1.157       .  T
C1803      N1805   1.157       .  T
C1804      N1806   1.157       .  T
C1809      C1814   1.410       .  A
C1810      C1811   1.410       .  A
C1810      C1815   1.453       .  S
C1811      C1818   1.451       .  S
C1812      C1813   1.423       .  A
C1813      C1814   1.415       .  A
C1813      C1816   1.451       .  S
C1814      C1817   1.451       .  S
C1815      N1822   1.157       .  T
C1816      N1821   1.158       .  T
C1817      N1819   1.157       .  T
C1818      N1820   1.158       .  T
C1823      C1824   1.421       .  A
C1824      C1825   1.414       .  A
C1824      C1829   1.451       .  S
C1825      C1826   1.412       .  A
C1825      C1832   1.452       .  S
C1827      C1828   1.411       .  A
C1827      C1830   1.453       .  S
C1828      C1831   1.451       .  S
C1829      N1836   1.158       .  T
C1830      N1835   1.157       .  T
C1831      N1833   1.158       .  T
C1832      N1834   1.157       .  T
C1837      C1838   1.411   1_455  A
C1838      C1839   1.410       .  A
C1838      C1843   1.453       .  S
C1839      C1840   1.420   1_655  A
C1839      C1846   1.452       .  S
C1841      C1842   1.414       .  A
C1841      C1844   1.450       .  S
C1842      C1845   1.451       .  S
C1843      N1850   1.157       .  T
C1844      N1849   1.157       .  T
C1845      N1847   1.157       .  T
C1846      N1848   1.158       .  T
C1851      C1856   1.410   1_455  A
C1852      C1853   1.413       .  A
C1852      C1857   1.451       .  S
C1853      C1860   1.450       .  S
C1854      C1855   1.419   1_455  A
C1855      C1856   1.409       .  A
C1855      C1858   1.452       .  S
C1856      C1859   1.452       .  S
C1857      N1864   1.157       .  T
C1858      N1863   1.158       .  T
C1859      N1861   1.157       .  T
C1860      N1862   1.158       .  T
