geometry optimzed in LAMMPS
_audit_creation_date              2020-12-01 
_audit_creation_method            'lammps2cif' 
_symmetry_space_group_name_H-M    'P1' 
_symmetry_Int_Tables_number       1 
_symmetry_cell_setting            triclinic 
loop_ 
_symmetry_equiv_pos_as_xyz 
  x,y,z 
_cell_length_a                    22.0378064 
_cell_length_b                    22.140998636903692 
_cell_length_c                    21.584701122521025 
_cell_angle_alpha                 89.84083113392091 
_cell_angle_beta                  88.61159306269639 
_cell_angle_gamma                 89.5836763422912 
loop_ 
_atom_site_label 
_atom_site_type_symbol 
_atom_site_fract_x 
_atom_site_fract_y 
_atom_site_fract_z 
_atom_site_charge 
O1          O  0.04857483  0.80681206  0.14214393    -0.69400
O2          O  0.91639720  0.75764470  0.04592841    -0.69600
O3          O  0.04090102  0.74124399  0.04167362    -0.69500
O4          O  0.92859961  0.82326031  0.14753717    -0.69500
O5          O  0.93829640  0.91098459  0.57331533    -0.69400
O6          O  0.04737418  0.82437468  0.46820462    -0.69500
O7          O  0.92133037  0.83975555  0.47413975    -0.69400
O8          O  0.05712284  0.89369307  0.56740876    -0.69600
V9          V  0.98342788  0.78340035  0.09240615     1.35200
V10         V  0.99060177  0.86571057  0.52129984     1.35200
C11         C  0.07767955  0.86150983  0.61102572     0.79800
C12         C  0.89322668  0.79012362  0.00392606     0.79900
C13         C  0.07095960  0.76924980  0.99984188     0.79800
C14         C  0.92006696  0.88891250  0.62433803     0.79700
O15         O  0.74698045  0.98752456  0.13144198    -0.69400
O16         O  0.70151210  0.12001822  0.03050827    -0.69600
O17         O  0.68435964  0.99664220  0.02953069    -0.69500
O18         O  0.76529360  0.10610050  0.13336986    -0.69500
O19         O  0.85058778  0.09917019  0.56165981    -0.69400
O20         O  0.76273677  0.99870371  0.45464324    -0.69500
O21         O  0.78426257  0.12397041  0.46322487    -0.69400
O22         O  0.82819281  0.98271810  0.55376167    -0.69600
V23         V  0.72553989  0.05273448  0.07925234     1.35200
V24         V  0.80446575  0.05160205  0.50855961     1.35200
C25         C  0.79863238  0.96782823  0.60236237     0.79800
C26         C  0.73768554  0.15389128  0.48105124     0.79900
C27         C  0.71369544  0.97620235  0.47560305     0.79800
C28         C  0.82574686  0.12249139  0.60909528     0.79700
O29         O  0.06300831  0.19587245  0.57502587    -0.69400
O30         O  0.95914917  0.27972818  0.46599427    -0.69600
O31         O  0.08661055  0.26483296  0.47700234    -0.69500
O32         O  0.94516585  0.20960014  0.56344381    -0.69500
O33         O  0.93845917  0.27966488  0.13642338    -0.69400
O34         O  0.08013084  0.33389213  0.05088199    -0.69500
O35         O  0.95715836  0.34874890  0.03846680    -0.69400
O36         O  0.05753705  0.26469914  0.14985226    -0.69600
V37         V  0.01385985  0.23959233  0.52058547     1.35200
V38         V  0.00870169  0.30568500  0.09210073     1.35200
C39         C  0.08159815  0.22086752  0.62340997     0.79800
C40         C  0.93407234  0.32801523  0.48574973     0.79900
C41         C  0.11404013  0.31096842  0.49652712     0.79800
C42         C  0.92340270  0.23797363  0.60956507     0.79700
O43         O  0.24259001  0.09885273  0.13559563    -0.69400
O44         O  0.28966802  0.96271518  0.03917818    -0.69600
O45         O  0.30591952  0.08660342  0.03183763    -0.69500
O46         O  0.22509534  0.98004418  0.14336488    -0.69500
O47         O  0.14596451  0.99292415  0.57419702    -0.69400
O48         O  0.23315722  0.09859991  0.46772142    -0.69500
O49         O  0.21484806  0.97201429  0.47424692    -0.69400
O50         O  0.16451666  0.11015590  0.56805257    -0.69600
V51         V  0.26480690  0.03185250  0.08552135     1.35200
V52         V  0.19136944  0.04295077  0.52104736     1.35200
C53         C  0.19836387  0.13175392  0.60891574     0.79800
C54         C  0.25535605  0.93814020  0.49742421     0.79900
C55         C  0.28636500  0.11289491  0.48252536     0.79800
C56         C  0.16762913  0.97688827  0.62523622     0.79700
C57         C  0.13296520  0.74452924  0.97667398    -0.00100
C58         C  0.26757716  0.87232985  0.47885585    -0.00100
N59         N  0.48038465  0.83387639  0.12301843    -0.34200
N60         N  0.57517973  0.84760542  0.21508416    -0.54800
N61         N  0.48220610  0.84319801  0.31237129    -0.34200
N62         N  0.38822587  0.82610209  0.22208591    -0.54800
C63         C  0.53077977  0.82652638  0.08610413     0.29400
C64         C  0.43145015  0.81877300  0.08926558     0.29400
C65         C  0.52990098  0.86458741  0.34398185     0.29400
C66         C  0.43182400  0.85155616  0.34875663     0.29400
C67         C  0.61163688  0.83900503  0.16470868     0.38000
C68         C  0.61177230  0.84893876  0.26449892     0.38000
C69         C  0.35156670  0.81625295  0.17373183     0.38000
C70         C  0.35408467  0.81814028  0.27457011     0.38000
C71         C  0.51376252  0.80610206  0.02855413    -0.19500
C72         C  0.45169844  0.80001569  0.03091293    -0.19500
C73         C  0.50945992  0.88732208  0.40031468    -0.19500
C74         C  0.44805425  0.87879412  0.40372158    -0.19500
C75         C  0.67148136  0.83451782  0.18250802    -0.20600
C76         C  0.67172036  0.84099944  0.24567027    -0.20600
C77         C  0.29409148  0.80099933  0.19631975    -0.20600
C78         C  0.29579329  0.80201437  0.25974004    -0.20600
C79         C  0.59224506  0.83518513  0.10281152    -0.15900
C80         C  0.36911922  0.82048648  0.10977478    -0.15900
C81         C  0.37251695  0.83159298  0.33532210    -0.15900
C82         C  0.59189233  0.85958598  0.32602897    -0.15900
H83         H  0.54325756  0.79432783  0.98956899     0.17000
H84         H  0.42490999  0.78187635  0.99405159     0.17000
H85         H  0.53586302  0.90793833  0.43563109     0.17000
H86         H  0.41954240  0.89136828  0.44299567     0.17000
H87         H  0.71055788  0.82499319  0.15325195     0.15300
H88         H  0.71133890  0.83969207  0.27435111     0.15300
H89         H  0.25490820  0.78847136  0.17073302     0.15300
H90         H  0.25792851  0.79333128  0.29129134     0.15300
H91         H  0.47901813  0.85324645  0.16674321     0.28500
H92         H  0.48488761  0.81732627  0.27224887     0.28500
C93         C  0.69432332  0.91196101  0.45900153    -0.00100
C94         C  0.82757051  0.77586414  0.47144415    -0.00100
C95         C  0.30849625  0.17846801  0.47825744    -0.00100
C96         C  0.18354710  0.31931021  0.48792612    -0.00100
N97         N  0.18981752  0.53662575  0.32020287    -0.34200
N98         N  0.20339671  0.44120286  0.23108497    -0.54800
N99         N  0.20113746  0.53221112  0.13180825    -0.34200
N100        N  0.19353079  0.62710068  0.22368905    -0.54800
C101        C  0.20663833  0.48834482  0.35438589     0.29400
C102        C  0.20790598  0.58662452  0.35014562     0.29400
C103        C  0.22148755  0.48279433  0.10042322     0.29400
C104        C  0.21244357  0.58146856  0.09582142     0.29400
C105        C  0.18329202  0.40913507  0.28098005     0.38000
C106        C  0.19583906  0.40572590  0.18120041     0.38000
C107        C  0.17766938  0.66203343  0.27298374     0.38000
C108        C  0.18156601  0.65979410  0.17248540     0.38000
C109        C  0.23827173  0.50745307  0.40504378    -0.19500
C110        C  0.23903378  0.56972685  0.40260378    -0.19500
C111        C  0.24678570  0.50125375  0.04390700    -0.19500
C112        C  0.24026607  0.56330800  0.04069447    -0.19500
C113        C  0.16336485  0.35295632  0.26304268    -0.20600
C114        C  0.17156503  0.35077071  0.19979823    -0.20600
C115        C  0.15593129  0.71736624  0.25307015    -0.20600
C116        C  0.15801126  0.71540281  0.18939188    -0.20600
C117        C  0.18806902  0.42882669  0.34258754    -0.15900
C118        C  0.18933468  0.64591372  0.33485616    -0.15900
C119        C  0.19588611  0.64187904  0.11096794    -0.15900
C120        C  0.21227183  0.42160190  0.11948748    -0.15900
H121        H  0.25858224  0.47964431  0.44010041     0.17000
H122        H  0.25885414  0.59895786  0.43659579     0.17000
H123        H  0.26682942  0.47292942  0.00800321     0.17000
H124        H  0.25437141  0.59176743  0.00219019     0.17000
H125        H  0.14595776  0.31703384  0.29241485     0.15300
H126        H  0.16028390  0.31328586  0.17069939     0.15300
H127        H  0.14172645  0.75563116  0.28103006     0.15300
H128        H  0.14541083  0.75102966  0.15840577     0.15300
H129        H  0.15975188  0.53561969  0.28361478     0.28500
H130        H  0.17473319  0.53166669  0.17240919     0.28500
N131        N  0.50363211  0.23068389  0.31233952    -0.34200
N132        N  0.41601631  0.25049439  0.21607412    -0.54800
N133        N  0.51517700  0.25929277  0.12571878    -0.34200
N134        N  0.60203068  0.25118862  0.22652502    -0.54800
C135        C  0.45283518  0.24413054  0.34620362     0.29400
C136        C  0.55088029  0.23878210  0.35036839     0.29400
C137        C  0.46871024  0.23950851  0.09073267     0.29400
C138        C  0.56764575  0.23934169  0.09812627     0.29400
C139        C  0.37610270  0.24618159  0.26459728     0.38000
C140        C  0.38275050  0.25725927  0.16457524     0.38000
C141        C  0.63656320  0.24128405  0.27636478     0.38000
C142        C  0.64097962  0.26266745  0.17913169     0.38000
C143        C  0.46839619  0.26329069  0.40459106    -0.19500
C144        C  0.53021280  0.25966351  0.40723445    -0.19500
C145        C  0.49262917  0.20657702  0.04130396    -0.19500
C146        C  0.55401085  0.20451127  0.04761553    -0.19500
C147        C  0.31725192  0.25151529  0.24406775    -0.20600
C148        C  0.32162837  0.25927862  0.18097901    -0.20600
C149        C  0.69743974  0.24810966  0.26080557    -0.20600
C150        C  0.69954435  0.26583767  0.20045279    -0.20600
C151        C  0.39238562  0.23817856  0.32709591    -0.15900
C152        C  0.61257453  0.22863676  0.33564920    -0.15900
C153        C  0.62769076  0.25143414  0.11704407    -0.15900
C154        C  0.40571502  0.25012729  0.10310221    -0.15900
H155        H  0.43834484  0.27981009  0.44094558     0.17000
H156        H  0.55711750  0.27366760  0.44555733     0.17000
H157        H  0.47028293  0.18442063  0.00412651     0.17000
H158        H  0.58473286  0.17868973  0.01852535     0.17000
H159        H  0.27540874  0.24949785  0.27122927     0.15300
H160        H  0.28399178  0.26240993  0.15027323     0.15300
H161        H  0.73706474  0.24064518  0.28817584     0.15300
H162        H  0.74032384  0.27456830  0.17377944     0.15300
H163        H  0.50559462  0.21072155  0.26863963     0.28500
H164        H  0.51161409  0.28846057  0.16354664     0.28500
C165        C  0.72932789  0.21123839  0.97233537    -0.00100
C166        C  0.86893062  0.34611945  0.46934818    -0.00100
N167        N  0.79078523  0.54230458  0.12908354    -0.34200
N168        N  0.79917045  0.45643347  0.22634670    -0.54800
N169        N  0.80716376  0.55707369  0.31595757    -0.34200
N170        N  0.79123261  0.64376049  0.21780110    -0.54800
C171        C  0.77807418  0.49156396  0.09722292     0.29400
C172        C  0.77847919  0.58947293  0.09196444     0.29400
C173        C  0.79803291  0.50837702  0.35317963     0.29400
C174        C  0.79245774  0.60722394  0.34955600     0.29400
C175        C  0.80611293  0.41824020  0.17798686     0.38000
C176        C  0.81729642  0.42568355  0.27662520     0.38000
C177        C  0.80168074  0.67385342  0.16382194     0.38000
C178        C  0.80197168  0.68285360  0.26475522     0.38000
C179        C  0.75602712  0.50686332  0.03964673    -0.19500
C180        C  0.75677036  0.56888001  0.03611640    -0.19500
C181        C  0.77789564  0.52795773  0.41122037    -0.19500
C182        C  0.77450906  0.59001204  0.40895691    -0.19500
C183        C  0.82779653  0.36317925  0.19780076    -0.20600
C184        C  0.83446284  0.36733749  0.26039658    -0.20600
C185        C  0.81765227  0.73271850  0.17670216    -0.20600
C186        C  0.81682045  0.73888229  0.24044233    -0.20600
C187        C  0.79259082  0.43230661  0.11624765    -0.15900
C188        C  0.79603837  0.64918954  0.10321350    -0.15900
C189        C  0.79734344  0.66816570  0.32901246    -0.15900
C190        C  0.81164758  0.44726718  0.33759947    -0.15900
H191        H  0.74322501  0.47652637  0.00308937     0.17000
H192        H  0.74492657  0.59582036  0.99619800     0.17000
H193        H  0.76628390  0.50063610  0.45124544     0.17000
H194        H  0.76023101  0.61905969  0.44688515     0.17000
H195        H  0.83721802  0.32419938  0.16985980     0.15300
H196        H  0.84925751  0.33110793  0.29029853     0.15300
H197        H  0.82809130  0.76752932  0.14331535     0.15300
H198        H  0.82730476  0.77941385  0.26585161     0.15300
H199        H  0.81627160  0.54512650  0.16876858     0.28500
H200        H  0.82841965  0.55607452  0.27245746     0.28500
C201        C  0.84512250  0.38911131  0.02560593    -0.14100
C202        C  0.80026555  0.38403866  0.06864252    -0.29200
H203        H  0.87191712  0.43020631  0.02614577     0.15000
H204        H  0.77480643  0.34251915  0.07400219     0.15500
C205        C  0.86631934  0.37671819  0.40652740    -0.14100
C206        C  0.81379982  0.40225208  0.38809419    -0.29200
H207        H  0.90803661  0.38437283  0.37982544     0.15000
H208        H  0.77250272  0.39611758  0.41590318     0.15500
C209        C  0.82780107  0.29272494  0.47076244    -0.10900
C210        C  0.78686826  0.25608318  0.47067368    -0.12500
C211        C  0.65134987  0.20654165  0.38653152    -0.14100
C212        C  0.70230439  0.23391366  0.40416404    -0.29200
H213        H  0.63268233  0.17071256  0.41542187     0.15000
H214        H  0.71710351  0.27438806  0.37979246     0.15500
C215        C  0.68248680  0.24299569  0.01438482    -0.14100
C216        C  0.68083973  0.23526044  0.07580737    -0.28800
H217        H  0.64677120  0.26973696  0.99407020     0.15000
H218        H  0.71843108  0.21114227  0.09613365     0.15500
C219        C  0.20314393  0.36052604  0.43346088    -0.14100
C220        C  0.16560313  0.38939907  0.39473319    -0.29200
H221        H  0.25165588  0.36638268  0.42533336     0.15000
H222        H  0.11694678  0.38304775  0.39935848     0.15500
C223        C  0.18847162  0.37610320  0.01836437    -0.14100
C224        C  0.21524033  0.37110174  0.07326478    -0.29200
H225        H  0.16762768  0.41931960  0.00870854     0.15000
H226        H  0.22981337  0.32676983  0.08834283     0.15500
C227        C  0.21702090  0.26108536  0.48014049    -0.10900
C228        C  0.25532373  0.22112675  0.47816126    -0.12500
C229        C  0.35156498  0.19666140  0.01874819    -0.14100
C230        C  0.36002381  0.24722011  0.05214540    -0.29200
H231        H  0.38224720  0.15940628  0.02714733     0.15000
H232        H  0.32861469  0.28481601  0.04778093     0.15500
C233        C  0.35085874  0.18668659  0.42177815    -0.14100
C234        C  0.34402217  0.22845642  0.37614197    -0.29200
H235        H  0.39124898  0.15816529  0.42018546     0.15000
H236        H  0.30345403  0.25635577  0.37479803     0.15500
C237        C  0.83610645  0.73955334  0.41045710    -0.14100
C238        C  0.78959316  0.71735353  0.37725473    -0.29200
H239        H  0.88208012  0.72742635  0.39566166     0.15000
H240        H  0.74341999  0.72842912  0.39210197     0.15500
C241        C  0.79756187  0.73149016  0.02368592    -0.14100
C242        C  0.82195559  0.68143336  0.04837725    -0.29200
H243        H  0.75412306  0.74583190  0.04314770     0.15000
H244        H  0.86483123  0.66401013  0.03034980     0.15500
C245        C  0.74810306  0.86934896  0.45833987    -0.10900
C246        C  0.78693129  0.82975147  0.46200130    -0.12500
C247        C  0.64031866  0.83960368  0.05273871    -0.14100
C248        C  0.64082238  0.88691191  0.01347054    -0.29200
H249        H  0.67857952  0.80915916  0.05375899     0.15000
H250        H  0.60170771  0.91720346  0.01586441     0.15500
C251        C  0.63714827  0.85979685  0.37617034    -0.14100
C252        C  0.66345964  0.91062710  0.39658743    -0.29200
H253        H  0.64190537  0.81829190  0.40262701     0.15000
H254        H  0.65711502  0.95253011  0.37110021     0.15500
C255        C  0.30659437  0.87410776  0.41930903    -0.14100
C256        C  0.32696098  0.82552797  0.38759279    -0.29200
H257        H  0.32064374  0.91816659  0.40183685     0.15000
H258        H  0.31187848  0.78067284  0.40100696     0.15500
C259        C  0.32518177  0.85271117  0.00717083    -0.14100
C260        C  0.31865133  0.82627914  0.06340298    -0.29200
H261        H  0.36923722  0.87056296  0.99532144     0.15000
H262        H  0.27256381  0.81763347  0.07844310     0.15500
C263        C  0.17195806  0.79847019  0.46993269    -0.10900
C264        C  0.21123878  0.83685934  0.47078831    -0.12500
C265        C  0.14942918  0.69169545  0.02059387    -0.14100
C266        C  0.19460357  0.68972233  0.06152665    -0.29200
H267        H  0.11817671  0.65388985  0.02157765     0.15000
H268        H  0.22477425  0.72768418  0.06559602     0.15500
C269        C  0.18503272  0.69131099  0.38564734    -0.14100
C270        C  0.13204552  0.71711494  0.40529427    -0.29200
H271        H  0.22455246  0.69621880  0.41427434     0.15000
H272        H  0.09127972  0.71112240  0.37872329     0.15500
C273        C  0.12155591  0.18709134  0.66323125    -0.14100
C274        C  0.17898262  0.18538619  0.64316952    -0.29200
H275        H  0.09142375  0.13447365  0.19311262     0.15000
H276        H  0.19818864  0.22687056  0.62496370     0.15500
C277        C  0.86330443  0.15751810  0.65028389    -0.14100
C278        C  0.86746176  0.21653431  0.63900574    -0.29200
H279        H  0.90474941  0.13427762  0.66337777     0.15000
H280        H  0.82004728  0.22901330  0.13248703     0.15500
C281        C  0.81990752  0.91768046  0.63945964    -0.14100
C282        C  0.87568024  0.92247264  0.66094185    -0.29200
H283        H  0.80782214  0.87435097  0.61996258     0.15000
H284        H  0.88712774  0.95434776  0.19049360     0.15500
C285        C  0.13166727  0.93739944  0.66464148    -0.14100
C286        C  0.13074702  0.88064851  0.64474835    -0.29200
H287        H  0.08873507  0.95722188  0.68043058     0.15000
H288        H  0.17146489  0.84999417  0.14375184     0.15500
O289        O  0.05273186  0.81211280  0.62372369    -0.69400
O290        O  0.91176535  0.76802704  0.54142935    -0.69600
O291        O  0.03171661  0.74549677  0.52564837    -0.69500
O292        O  0.93473032  0.83568210  0.63838124    -0.69500
O293        O  0.93841266  0.90320626  0.08948643    -0.69400
O294        O  0.05027450  0.82006298  0.98268028    -0.69500
O295        O  0.92316096  0.83656886  0.98739899    -0.69400
O296        O  0.05780933  0.88643535  0.08360071    -0.69600
V297        V  0.98266198  0.79152797  0.58043012     1.35200
V298        V  0.99196988  0.85981534  0.03634303     1.35200
C299        C  0.07599560  0.85484934  0.12855482     0.79800
C300        C  0.89014556  0.79595275  0.49577557     0.79900
C301        C  0.06404981  0.77214665  0.48467248     0.79800
C302        C  0.91573867  0.87771835  0.13695292     0.79700
O303        O  0.75154606  0.99688782  0.61776098    -0.69400
O304        O  0.70120553  0.12789338  0.51859539    -0.69600
O305        O  0.68549195  0.00491189  0.51838179    -0.69500
O306        O  0.76956222  0.11510035  0.61895353    -0.69500
O307        O  0.84827339  0.08927448  0.07922768    -0.69400
O308        O  0.76377207  0.98945447  0.96878881    -0.69500
O309        O  0.78605307  0.11410655  0.97764189    -0.69400
O310        O  0.82581498  0.97313321  0.07042257    -0.69600
V311        V  0.72788456  0.06147703  0.56638510     1.35200
V312        V  0.80400706  0.04200204  0.02430495     1.35200
C313        C  0.79457483  0.95825709  0.11788765     0.79800
C314        C  0.73916003  0.14470707  0.99302553     0.79900
C315        C  0.71332215  0.96800960  0.98721604     0.79800
C316        C  0.82173836  0.11297119  0.12556706     0.79700
O317        O  0.05958756  0.18827227  0.08669383    -0.69400
O318        O  0.95062987  0.26932840  0.98065521    -0.69600
O319        O  0.07640217  0.25878836  0.98688338    -0.69500
O320        O  0.94047163  0.19899077  0.07912255    -0.69500
O321        O  0.94809093  0.28639275  0.62598063    -0.69400
O322        O  0.08470184  0.34524472  0.53397678    -0.69500
O323        O  0.96074531  0.35655751  0.52776378    -0.69400
O324        O  0.06821467  0.27531122  0.63381949    -0.69600
V325        V  0.00720366  0.23064108  0.03394481     1.35200
V326        V  0.01571462  0.31484559  0.57850131     1.35200
C327        C  0.07456376  0.21165519  0.13735520     0.79800
C328        C  0.92918473  0.32021259  0.99712907     0.79900
C329        C  0.10472924  0.30423587  0.00656237     0.79800
C330        C  0.91600676  0.22953321  0.12241128     0.79700
O331        O  0.24882846  0.10701074  0.61834342    -0.69400
O332        O  0.28719404  0.96019586  0.53953789    -0.69600
O333        O  0.31417447  0.07613966  0.51702592    -0.69500
O334        O  0.22110413  0.99143483  0.63799916    -0.69500
O335        O  0.14547112  0.98635653  0.08589940    -0.69400
O336        O  0.22424676  0.09987362  0.97985403    -0.69500
O337        O  0.21134152  0.97266158  0.98127992    -0.69400
O338        O  0.15925258  0.10430571  0.08385546    -0.69600
V339        V  0.26679922  0.03382782  0.57663572     1.35200
V340        V  0.18704326  0.04029433  0.03296237     1.35200
C341        C  0.19187661  0.12344999  0.12695854     0.79800
C342        C  0.25658177  0.94086214  0.99747799     0.79900
C343        C  0.27593506  0.11910656  0.99449695     0.79800
C344        C  0.17043677  0.96720396  0.13419260     0.79700
C345        C  0.12747982  0.74759186  0.46843309    -0.00100
C346        C  0.27245698  0.87814231  0.96927229    -0.00100
N347        N  0.49777530  0.83633735  0.61890430    -0.34200
N348        N  0.58229812  0.85647920  0.71744634    -0.54800
N349        N  0.48159813  0.85494986  0.80600067    -0.34200
N350        N  0.39587224  0.83796390  0.70714335    -0.54800
C351        C  0.55135718  0.82913128  0.58758248     0.29400
C352        C  0.45429186  0.81268289  0.58301544     0.29400
C353        C  0.52724818  0.87380787  0.84205673     0.29400
C354        C  0.42867898  0.87047593  0.83539131     0.29400
C355        C  0.62309810  0.85494756  0.66983065     0.38000
C356        C  0.61479919  0.85948035  0.76961678     0.38000
C357        C  0.36561647  0.81939201  0.65671011     0.38000
C358        C  0.35710352  0.83367536  0.75676111     0.38000
C359        C  0.54222643  0.79966542  0.53226303    -0.19500
C360        C  0.48142771  0.78868759  0.52955887    -0.19500
C361        C  0.50345442  0.90198495  0.89435840    -0.19500
C362        C  0.44148071  0.90111104  0.88944995    -0.19500
C363        C  0.68115385  0.85732550  0.69219736    -0.20600
C364        C  0.67616522  0.85966205  0.75536870    -0.20600
C365        C  0.30788108  0.80158740  0.67518666    -0.20600
C366        C  0.30210152  0.81168497  0.73802243    -0.20600
C367        C  0.60893619  0.84810080  0.60686108    -0.15900
C368        C  0.39067369  0.81509511  0.59506341    -0.15900
C369        C  0.36988965  0.85190531  0.81810303    -0.15900
C370        C  0.58995815  0.86569251  0.82972095    -0.15900
H371        H  0.57616614  0.78607950  0.49790137     0.17000
H372        H  0.46063314  0.76425811  0.49245687     0.17000
H373        H  0.52821451  0.92295224  0.93112288     0.17000
H374        H  0.40994665  0.92297270  0.92108701     0.17000
H375        H  0.72277904  0.85461281  0.66619899     0.15300
H376        H  0.71336029  0.86238775  0.78701615     0.15300
H377        H  0.27452580  0.78074911  0.64671858     0.15300
H378        H  0.26234827  0.80361760  0.76690523     0.15300
H379        H  0.49078024  0.86240907  0.65842372     0.28500
H380        H  0.48649133  0.82650089  0.76786711     0.28500
C381        C  0.69217774  0.90521931  0.96726613    -0.00100
C382        C  0.83111658  0.77195929  0.97589905    -0.00100
C383        C  0.29942074  0.18228434  0.97473235    -0.00100
C384        C  0.16675703  0.32316588  0.97929696    -0.00100
N385        N  0.18031266  0.53274779  0.81544180    -0.34200
N386        N  0.20204331  0.44290515  0.72218877    -0.54800
N387        N  0.20243194  0.54076926  0.62931981    -0.34200
N388        N  0.17373658  0.62846824  0.72188558    -0.54800
C389        C  0.16877449  0.48136099  0.84805634     0.29400
C390        C  0.15800391  0.57954198  0.84933664     0.29400
C391        C  0.19894816  0.48965741  0.59562251     0.29400
C392        C  0.18279181  0.58665840  0.59292563     0.29400
C393        C  0.21348331  0.40897135  0.77270833     0.38000
C394        C  0.22818918  0.41398726  0.67347509     0.38000
C395        C  0.17007315  0.66331163  0.77323423     0.38000
C396        C  0.17831780  0.66659891  0.67286085     0.38000
C397        C  0.13723979  0.49603392  0.90231127    -0.19500
C398        C  0.13140344  0.55792562  0.90364353    -0.19500
C399        C  0.17498160  0.50239412  0.53869646    -0.19500
C400        C  0.16710148  0.56338363  0.53579000    -0.19500
C401        C  0.24616866  0.35770014  0.75589244    -0.20600
C402        C  0.25563580  0.36121230  0.69267416    -0.20600
C403        C  0.16950425  0.72366451  0.75684677    -0.20600
C404        C  0.17389508  0.72558883  0.69330877    -0.20600
C405        C  0.19216642  0.42309984  0.83299604    -0.15900
C406        C  0.16446687  0.64143689  0.83452726    -0.15900
C407        C  0.18157115  0.64863277  0.60986127    -0.15900
C408        C  0.22322349  0.43303730  0.61162094    -0.15900
H409        H  0.11888609  0.46559886  0.93678064     0.17000
H410        H  0.10892308  0.58394876  0.93983306     0.17000
H411        H  0.16549597  0.47089081  0.50210300     0.17000
H412        H  0.15239044  0.58583420  0.49455987     0.17000
H413        H  0.26155228  0.32199883  0.78609263     0.15300
H414        H  0.27970889  0.32925772  0.66354217     0.15300
H415        H  0.16419707  0.76215688  0.78733227     0.15300
H416        H  0.17230562  0.76568800  0.66525755     0.15300
H417        H  0.20917826  0.53688578  0.77697153     0.28500
H418        H  0.22475134  0.54474632  0.67097315     0.28500
N419        N  0.50632302  0.21251149  0.81737695    -0.34200
N420        N  0.42213620  0.23091075  0.72041670    -0.54800
N421        N  0.52385572  0.24632628  0.63140901    -0.34200
N422        N  0.60814009  0.22535784  0.73059030    -0.54800
C423        C  0.45660509  0.23356629  0.84866159     0.29400
C424        C  0.55408693  0.22344438  0.85353066     0.29400
C425        C  0.47728537  0.23046034  0.59485108     0.29400
C426        C  0.57583787  0.22951222  0.60077154     0.29400
C427        C  0.38168659  0.22194018  0.76781422     0.38000
C428        C  0.38979135  0.23324981  0.66822403     0.38000
C429        C  0.63870209  0.20627513  0.78065906     0.38000
C430        C  0.64990961  0.23003145  0.68417777     0.38000
C431        C  0.47334714  0.25992134  0.90361360    -0.19500
C432        C  0.53507388  0.25367610  0.90639981    -0.19500
C433        C  0.49955689  0.20118850  0.54259222    -0.19500
C434        C  0.56132069  0.19955993  0.54689549    -0.19500
C435        C  0.32371115  0.21700969  0.74569607    -0.20600
C436        C  0.32916494  0.22424810  0.68258997    -0.20600
C437        C  0.69913132  0.19681789  0.76580565    -0.20600
C438        C  0.70674948  0.21483947  0.70604981    -0.20600
C439        C  0.39633279  0.22596889  0.83070582    -0.15900
C440        C  0.61406986  0.20491977  0.84092881    -0.15900
C441        C  0.63614106  0.23778365  0.62109899    -0.15900
C442        C  0.41470867  0.23903322  0.60750781    -0.15900
H443        H  0.44423138  0.28153588  0.93815353     0.17000
H444        H  0.56283912  0.27110780  0.94237049     0.17000
H445        H  0.47376980  0.18021397  0.50656919     0.17000
H446        H  0.59162152  0.17628487  0.51498820     0.17000
H447        H  0.28193085  0.21068499  0.77224134     0.15300
H448        H  0.29297459  0.22307709  0.65043672     0.15300
H449        H  0.73493393  0.18016678  0.79475946     0.15300
H450        H  0.74973709  0.21342462  0.68233315     0.15300
H451        H  0.50719658  0.18610695  0.77737669     0.28500
H452        H  0.52052313  0.27122722  0.67234413     0.28500
C453        C  0.72882611  0.22210639  0.46699511    -0.00100
C454        C  0.86592826  0.34146288  0.97808087    -0.00100
N455        N  0.81752190  0.54183833  0.62985297    -0.34200
N456        N  0.82008481  0.45621337  0.73187870    -0.54800
N457        N  0.81323051  0.55580475  0.81758510    -0.34200
N458        N  0.81146806  0.64268956  0.71607970    -0.54800
C459        C  0.84693007  0.49189412  0.60859196     0.29400
C460        C  0.84214140  0.58931794  0.59914288     0.29400
C461        C  0.82888885  0.50899572  0.85507564     0.29400
C462        C  0.82574178  0.60778131  0.84787504     0.29400
C463        C  0.81202338  0.41804871  0.68441835     0.38000
C464        C  0.80876543  0.42448172  0.78397438     0.38000
C465        C  0.80405216  0.67366999  0.66211281     0.38000
C466        C  0.80144416  0.68143938  0.76400513     0.38000
C467        C  0.89299717  0.50799161  0.56725445    -0.19500
C468        C  0.88972429  0.56934870  0.56072157    -0.19500
C469        C  0.85199111  0.53136985  0.90924919    -0.19500
C470        C  0.85027426  0.59323768  0.90453010    -0.19500
C471        C  0.79407516  0.36191261  0.70629151    -0.20600
C472        C  0.79244713  0.36583703  0.76986900    -0.20600
C473        C  0.78987818  0.73322918  0.67617940    -0.20600
C474        C  0.78783070  0.73798253  0.74031887    -0.20600
C475        C  0.83031748  0.43210185  0.62352743    -0.15900
C476        C  0.81961010  0.64915930  0.60231339    -0.15900
C477        C  0.81093967  0.66749252  0.82794033    -0.15900
C478        C  0.81934935  0.44676698  0.84335608    -0.15900
H479        H  0.92570743  0.47860398  0.54409178     0.17000
H480        H  0.92060014  0.59561175  0.53203822     0.17000
H481        H  0.86863151  0.50590277  0.94815429     0.17000
H482        H  0.86651708  0.62364134  0.93878031     0.17000
H483        H  0.78491555  0.32200883  0.67960448     0.15300
H484        H  0.78210112  0.32942653  0.80190417     0.15300
H485        H  0.78543343  0.77038884  0.64434437     0.15300
H486        H  0.78090733  0.77910140  0.76645015     0.15300
H487        H  0.77862057  0.54280223  0.65848586     0.28500
H488        H  0.78874431  0.55249311  0.77710357     0.28500
C489        C  0.84452298  0.39197098  0.51682366    -0.14100
C490        C  0.84170179  0.38225907  0.57822923    -0.29200
H491        H  0.83193259  0.43650797  0.50054940     0.15000
H492        H  0.85083048  0.33749042  0.59522367     0.15500
C493        C  0.86704146  0.37311346  0.91541188    -0.14100
C494        C  0.81763051  0.40381655  0.89620743    -0.29200
H495        H  0.90951208  0.37651875  0.88900070     0.15000
H496        H  0.77556922  0.40179569  0.92337783     0.15500
C497        C  0.82374833  0.28832038  0.97663953    -0.10900
C498        C  0.78548829  0.24870934  0.97509694    -0.12500
C499        C  0.65165033  0.18778355  0.89445548    -0.14100
C500        C  0.70451902  0.21457224  0.90765718    -0.29200
H501        H  0.63064990  0.15814673  0.92858795     0.15000
H502        H  0.72435472  0.24687272  0.87515628     0.15500
C503        C  0.68412178  0.24987262  0.51455151    -0.14100
C504        C  0.68846725  0.23760961  0.57513472    -0.28800
H505        H  0.64389649  0.27318633  0.49885319     0.15000
H506        H  0.73115634  0.21837978  0.58825965     0.15500
C507        C  0.15874744  0.34827522  0.91383327    -0.14100
C508        C  0.20347778  0.37924063  0.88422964    -0.29200
H509        H  0.11355486  0.34956192  0.89469316     0.15000
H510        H  0.24870034  0.37891529  0.90320693     0.15500
C511        C  0.20424009  0.34296424  0.55060340    -0.14100
C512        C  0.23817512  0.39199464  0.55900701    -0.29200
H513        H  0.18135158  0.32447092  0.59154773     0.15000
H514        H  0.26299220  0.41157961  0.52017932     0.15500
C515        C  0.21129363  0.27065304  0.97902360    -0.10900
C516        C  0.24901229  0.22940401  0.97835953    -0.12500
C517        C  0.34424835  0.18987353  0.53773536    -0.14100
C518        C  0.37348253  0.24025756  0.55309865    -0.29200
H519        H  0.34918760  0.15386474  0.57144953     0.15000
H520        H  0.37264962  0.27948336  0.52301958     0.15500
C521        C  0.32658438  0.17998732  0.90909072    -0.14100
C522        C  0.34822096  0.22990916  0.88027465    -0.29200
H523        H  0.33533006  0.13615727  0.88795270     0.15000
H524        H  0.34105744  0.27362676  0.90211234     0.15500
C525        C  0.84301328  0.73734442  0.91441449    -0.14100
C526        C  0.79919470  0.71491034  0.87766157    -0.29200
H527        H  0.88989219  0.72641084  0.90189975     0.15000
H528        H  0.75213732  0.72658490  0.88817174     0.15500
C529        C  0.79790350  0.73550089  0.52310106    -0.14100
C530        C  0.82718427  0.68524170  0.54280220    -0.29200
H531        H  0.75702666  0.75045766  0.54752949     0.15000
H532        H  0.86349524  0.67088416  0.51154600     0.15500
C533        C  0.74617721  0.86187381  0.96630784    -0.10900
C534        C  0.78876104  0.82545695  0.96716023    -0.12500
C535        C  0.65769187  0.85731538  0.55839636    -0.14100
C536        C  0.64726611  0.89270234  0.50865483    -0.29200
H537        H  0.70262216  0.83925736  0.56586966     0.15000
H538        H  0.60364244  0.91563201  0.50762095     0.15500
C539        C  0.63087746  0.86130671  0.88322306    -0.14100
C540        C  0.66385998  0.90795436  0.90376265    -0.29200
H541        H  0.62832683  0.82000207  0.91041254     0.15000
H542        H  0.66411962  0.95013243  0.87785025     0.15500
C543        C  0.29686754  0.88698382  0.90248641    -0.14100
C544        C  0.32341084  0.84169577  0.86929190    -0.29200
H545        H  0.30140317  0.93279962  0.88476668     0.15000
H546        H  0.31919204  0.79570682  0.88642982     0.15500
C547        C  0.29726996  0.84379015  0.53600393    -0.14100
C548        C  0.35155758  0.81604876  0.53818772    -0.29200
H549        H  0.27447117  0.85560389  0.57924050     0.15000
H550        H  0.37227646  0.80452173  0.49423046     0.15500
C551        C  0.18000415  0.79486551  0.97465187    -0.10900
C552        C  0.21926291  0.83440946  0.97155031    -0.12500
C553        C  0.13918193  0.69849845  0.51705924    -0.14100
C554        C  0.18170039  0.69692226  0.56067916    -0.29200
H555        H  0.10449708  0.66399107  0.51949869     0.15000
H556        H  0.21389024  0.73352391  0.56383457     0.15500
C557        C  0.17243000  0.68371317  0.88707099    -0.14100
C558        C  0.12702358  0.71723514  0.91238262    -0.29200
H559        H  0.21500710  0.68000634  0.91121580     0.15000
H560        H  0.08346904  0.71871255  0.88978436     0.15500
C561        C  0.11220148  0.17697610  0.17920219    -0.14100
C562        C  0.17110966  0.17481742  0.16411062    -0.29200
H563        H  0.10216989  0.14499252  0.68032106     0.15000
H564        H  0.19342256  0.21652968  0.15143041     0.15500
C565        C  0.85710797  0.14995697  0.16655019    -0.14100
C566        C  0.85995769  0.20812985  0.15168182    -0.29200
H567        H  0.89864500  0.12846252  0.18203948     0.15000
H568        H  0.82779349  0.24028394  0.62295859     0.15500
C569        C  0.81464204  0.90776545  0.15560204    -0.14100
C570        C  0.87142424  0.91052455  0.17512011    -0.29200
H571        H  0.79970600  0.86498946  0.13780622     0.15000
H572        H  0.89040617  0.96683565  0.67577892     0.15500
C573        C  0.13513845  0.92999353  0.17704292    -0.14100
C574        C  0.13053300  0.87240377  0.16105458    -0.29200
H575        H  0.09377501  0.95215615  0.19393403     0.15000
H576        H  0.17311596  0.86082138  0.62759962     0.15500
loop_ 
_geom_bond_atom_site_label_1 
_geom_bond_atom_site_label_2 
_geom_bond_distance 
_geom_bond_site_symmetry_2 
_ccdc_geom_bond_type 
O1            V9   1.890   1_455  S
O1          C299   1.258       .  A
O2            V9   1.898       .  S
O2           C12   1.270       .  A
O3            V9   1.896   1_455  S
O3           C13   1.270   1_554  A
O4            V9   1.891       .  S
O4          C302   1.258       .  A
O5           V10   1.876       .  S
O5           C14   1.262       .  A
O6           V10   1.907   1_455  S
O6          C301   1.264       .  A
O7           V10   1.946       .  S
O7          C300   1.274       .  A
O8           V10   1.900   1_455  S
O8           C11   1.269       .  A
V9          V298   2.084       .  T
V10         V297   2.083       .  T
C11         O289   1.254       .  A
C11         C286   1.459       .  S
C12         O295   1.271   1_554  A
C12         C382   1.565   1_554  S
C13         O294   1.269       .  A
C13          C57   1.541       .  S
C14         O292   1.258       .  A
C14         C282   1.445       .  S
O15          V23   1.893   1_565  S
O15         C313   1.258       .  A
O16          V23   1.901       .  S
O16         C314   1.270   1_554  A
O17          V23   1.894   1_565  S
O17         C315   1.270   1_554  A
O18          V23   1.897       .  S
O18         C316   1.261       .  A
O19          V24   1.880       .  S
O19          C28   1.259       .  A
O20          V24   1.910   1_565  S
O20          C27   1.266       .  A
O21          V24   1.930       .  S
O21          C26   1.270       .  A
O22          V24   1.886   1_565  S
O22          C25   1.266       .  A
V23         V312   2.086       .  T
V24         V311   2.085       .  T
C25         O303   1.255       .  A
C25         C281   1.449       .  S
C26         O304   1.268       .  A
C26         C453   1.552       .  S
C27         O305   1.270   1_565  A
C27          C93   1.534       .  S
C28         O306   1.263       .  A
C28         C277   1.458       .  S
O29          V37   1.879       .  S
O29          C39   1.262       .  A
O30          V37   1.918   1_655  S
O30          C40   1.270       .  A
O31          V37   1.925       .  S
O31          C41   1.269       .  A
O32          V37   1.879   1_655  S
O32          C42   1.262       .  A
O33          V38   1.893   1_655  S
O33         C330   1.259       .  A
O34          V38   1.898       .  S
O34         C329   1.270       .  A
O35          V38   1.892   1_655  S
O35         C328   1.269   1_554  A
O36          V38   1.892       .  S
O36         C327   1.258       .  A
V37         V326   2.087       .  T
V38         V325   2.086       .  T
C39         O324   1.258       .  A
C39         C273   1.448       .  S
C40         O323   1.266       .  A
C40         C166   1.537       .  S
C41         O322   1.272       .  A
C41          C96   1.551       .  S
C42         O321   1.261       .  A
C42         C278   1.455       .  S
O43          V51   1.892       .  S
O43         C341   1.257       .  A
O44          V51   1.901   1_565  S
O44         C342   1.271   1_554  A
O45          V51   1.895       .  S
O45         C343   1.273   1_554  A
O46          V51   1.896   1_565  S
O46         C344   1.260       .  A
O47          V52   1.870   1_565  S
O47          C56   1.260       .  A
O48          V52   1.910       .  S
O48          C55   1.265       .  A
O49          V52   1.930   1_565  S
O49          C54   1.273       .  A
O50          V52   1.887       .  S
O50          C53   1.266       .  A
V51         V340   2.085       .  T
V52         V339   2.082       .  T
C53         O331   1.257       .  A
C53         C274   1.456       .  S
C54         O332   1.263       .  A
C54          C58   1.533       .  S
C55         O333   1.266       .  A
C55          C95   1.537       .  S
C56         O334   1.261       .  A
C56         C285   1.445       .  S
C57         C265   1.550   1_556  S
C57         C558   1.524       .  S
C57         C551   1.527       .  S
C58         C255   1.530       .  S
C58         C547   1.542       .  S
C58         C264   1.488       .  S
N59          C64   1.360       .  A
N59          C63   1.360       .  A
N59          H91   1.037       .  S
N60          C67   1.349       .  A
N60          C68   1.353       .  A
N61          C66   1.356       .  A
N61          C65   1.356       .  A
N61          H92   1.040       .  S
N62          C69   1.354       .  A
N62          C70   1.356       .  A
C63          C71   1.384       .  A
C63          C79   1.425       .  A
C64          C80   1.433       .  A
C64          C72   1.390       .  A
C65          C73   1.381       .  A
C65          C82   1.415       .  A
C66          C81   1.420       .  A
C66          C74   1.388       .  A
C67          C79   1.415       .  A
C67          C75   1.385       .  A
C68          C82   1.408       .  A
C68          C76   1.383       .  A
C69          C77   1.390       .  A
C69          C80   1.428       .  A
C70          C78   1.381       .  A
C70          C81   1.415       .  A
C71          C72   1.375       .  A
C71          H83   1.082   1_554  S
C72          H84   1.082   1_554  S
C73          C74   1.368       .  A
C73          H85   1.075       .  S
C74          H86   1.079       .  S
C75          C76   1.371       .  A
C75          H87   1.075       .  S
C76          H88   1.083       .  S
C77          C78   1.371       .  A
C77          H89   1.075       .  S
C78          H90   1.082       .  S
C79         C247   1.499       .  S
C80         C260   1.519       .  S
C81         C256   1.498       .  S
C82         C251   1.489       .  S
C93         C252   1.524       .  S
C93         C536   1.535       .  S
C93         C245   1.509       .  S
C94         C300   1.556       .  S
C94         C237   1.551       .  S
C94         C529   1.561       .  S
C94         C246   1.503       .  S
C95         C233   1.529       .  S
C95         C517   1.545       .  S
C95         C228   1.500       .  S
C96         C219   1.542       .  S
C96         C511   1.533       .  S
C96         C227   1.489       .  S
N97         C102   1.351       .  A
N97         C101   1.352       .  A
N97         H129   1.043       .  S
N98         C105   1.356       .  A
N98         C106   1.349       .  A
N99         C104   1.358       .  A
N99         C103   1.356       .  A
N99         H130   1.040       .  S
N100        C107   1.355       .  A
N100        C108   1.350       .  A
C101        C109   1.380       .  A
C101        C117   1.408       .  A
C102        C118   1.413       .  A
C102        C110   1.387       .  A
C103        C111   1.391       .  A
C103        C120   1.429       .  A
C104        C119   1.421       .  A
C104        C112   1.385       .  A
C105        C117   1.407       .  A
C105        C113   1.382       .  A
C106        C120   1.416       .  A
C106        C114   1.387       .  A
C107        C115   1.383       .  A
C107        C118   1.411       .  A
C108        C116   1.379       .  A
C108        C119   1.415       .  A
C109        C110   1.380       .  A
C109        H121   1.078       .  S
C110        H122   1.082       .  S
C111        C112   1.382       .  A
C111        H123   1.082       .  S
C112        H124   1.083       .  S
C113        C114   1.374       .  A
C113        H125   1.082       .  S
C114        H126   1.076       .  S
C115        C116   1.375       .  A
C115        H127   1.082       .  S
C116        H128   1.072       .  S
C117        C220   1.499       .  S
C118        C269   1.490       .  S
C119        C266   1.502       .  S
C120        C224   1.501       .  S
N131        C136   1.355       .  A
N131        C135   1.354       .  A
N131        H163   1.043       .  S
N132        C139   1.355       .  A
N132        C140   1.354       .  A
N133        C138   1.359       .  A
N133        C137   1.363       .  A
N133        H164   1.044       .  S
N134        C141   1.349       .  A
N134        C142   1.344       .  A
C135        C143   1.383       .  A
C135        C151   1.411       .  A
C136        C152   1.405       .  A
C136        C144   1.379       .  A
C137        C145   1.385       .  A
C137        C154   1.425       .  A
C138        C153   1.422       .  A
C138        C146   1.378       .  A
C139        C151   1.415       .  A
C139        C147   1.385       .  A
C140        C154   1.417       .  A
C140        C148   1.385       .  A
C141        C149   1.384       .  A
C141        C152   1.401       .  A
C142        C150   1.383       .  A
C142        C153   1.402       .  A
C143        C144   1.367       .  A
C143        H155   1.078       .  S
C144        H156   1.077       .  S
C145        C146   1.363       .  A
C145        H157   1.073       .  S
C146        H158   1.075       .  S
C147        C148   1.373       .  A
C147        H159   1.082       .  S
C148        H160   1.076       .  S
C149        C150   1.359       .  A
C149        H161   1.078       .  S
C150        H162   1.074       .  S
C151        C234   1.500       .  S
C152        C211   1.487       .  S
C153        C216   1.496       .  S
C154        C230   1.511       .  S
C165        C314   1.553       .  S
C165        C215   1.527   1_556  S
C165        C500   1.513       .  S
C165        C498   1.497       .  S
C166        C205   1.516       .  S
C166        C489   1.530       .  S
C166        C209   1.495       .  S
N167        C172   1.345       .  A
N167        C171   1.353       .  A
N167        H199   1.038       .  S
N168        C175   1.350       .  A
N168        C176   1.347       .  A
N169        C174   1.361       .  A
N169        C173   1.356       .  A
N169        H200   1.039       .  S
N170        C177   1.356       .  A
N170        C178   1.361       .  A
C171        C179   1.386       .  A
C171        C187   1.411       .  A
C172        C188   1.404       .  A
C172        C180   1.387       .  A
C173        C181   1.388       .  A
C173        C190   1.423       .  A
C174        C189   1.423       .  A
C174        C182   1.386       .  A
C175        C187   1.406       .  A
C175        C183   1.377       .  A
C176        C190   1.404       .  A
C176        C184   1.387       .  A
C177        C185   1.383       .  A
C177        C188   1.428       .  A
C178        C186   1.384       .  A
C178        C189   1.425       .  A
C179        C180   1.375       .  A
C179        H191   1.082       .  S
C180        H192   1.083   1_554  S
C181        C182   1.376       .  A
C181        H193   1.080       .  S
C182        H194   1.082       .  S
C183        C184   1.366       .  A
C183        H195   1.070       .  S
C184        H196   1.082       .  S
C185        C186   1.383       .  A
C185        H197   1.076       .  S
C186        H198   1.082       .  S
C187        C202   1.491       .  S
C188        C242   1.485       .  S
C189        C238   1.515       .  S
C190        C206   1.476       .  S
C201        C454   1.534   1_554  S
C201        C202   1.345       .  D
C201        H203   1.089       .  S
C202        H204   1.085       .  S
C205        C206   1.352       .  D
C205        H207   1.087       .  S
C206        H208   1.087       .  S
C209        C210   1.218       .  T
C210        C453   1.493       .  S
C211        C212   1.343       .  D
C211        H213   1.085       .  S
C212        C453   1.511       .  S
C212        H214   1.086       .  S
C215        C216   1.336       .  D
C215        H217   1.082   1_554  S
C216        H218   1.083       .  S
C219        C220   1.347       .  D
C219        H221   1.088       .  S
C220        H222   1.085       .  S
C223        C384   1.532   1_554  S
C223        C224   1.340       .  D
C223        H225   1.080       .  S
C224        H226   1.082       .  S
C227        C228   1.218       .  T
C229        C383   1.544   1_554  S
C229        C230   1.350       .  D
C229        H231   1.080       .  S
C230        H232   1.084       .  S
C233        C234   1.360       .  D
C233        H235   1.088       .  S
C234        H236   1.084       .  S
C237        C238   1.360       .  D
C237        H239   1.087       .  S
C238        H240   1.086       .  S
C241        C382   1.543   1_554  S
C241        C242   1.343       .  D
C241        H243   1.082       .  S
C242        H244   1.082       .  S
C245        C246   1.224       .  T
C247        C248   1.346       .  D
C247        H249   1.076       .  S
C248        C381   1.546   1_554  S
C248        H250   1.089       .  S
C251        C252   1.350       .  D
C251        H253   1.086       .  S
C252        H254   1.087       .  S
C255        C256   1.345       .  D
C255        H257   1.089       .  S
C256        H258   1.086       .  S
C259        C346   1.540   1_554  S
C259        C260   1.351       .  D
C259        H261   1.076   1_554  S
C260        H262   1.077       .  S
C263        C345   1.500       .  S
C263        C264   1.218       .  T
C265        C266   1.347       .  D
C265        H267   1.088       .  S
C266        H268   1.081       .  S
C269        C270   1.356       .  D
C269        H271   1.086       .  S
C270        C345   1.523       .  S
C270        H272   1.087       .  S
C273        C274   1.328       .  D
C273        H563   1.088       .  S
C274        H276   1.083       .  S
H275        C561   1.088       .  S
C277        C278   1.332       .  D
C277        H279   1.088       .  S
C278        H568   1.081       .  S
H280        C566   1.082       .  S
C281        C282   1.329       .  D
C281        H283   1.086       .  S
C282        H572   1.088       .  S
H284        C570   1.088       .  S
C285        C286   1.329       .  D
C285        H287   1.088       .  S
C286        H576   1.086       .  S
H288        C574   1.085       .  S
O289        V297   1.884   1_455  S
O290        V297   1.870       .  S
O290        C300   1.263       .  A
O291        V297   1.880   1_455  S
O291        C301   1.269       .  A
O292        V297   1.888       .  S
O293        V298   1.886       .  S
O293        C302   1.263       .  A
O294        V298   1.919   1_456  S
O295        V298   1.942   1_556  S
O296        V298   1.892   1_455  S
O296        C299   1.266       .  A
C299        C574   1.462       .  S
C301        C345   1.529       .  S
C302        C570   1.454       .  S
O303        V311   1.886   1_565  S
O304        V311   1.892       .  S
O305        V311   1.894       .  S
O306        V311   1.901       .  S
O307        V312   1.879       .  S
O307        C316   1.260       .  A
O308        V312   1.910   1_566  S
O308        C315   1.267       .  A
O309        V312   1.929   1_556  S
O309        C314   1.270       .  A
O310        V312   1.884   1_565  S
O310        C313   1.265       .  A
C313        C569   1.454       .  S
C315        C381   1.536       .  S
C316        C565   1.452       .  S
O317        V325   1.884       .  S
O317        C327   1.263       .  A
O318        V325   1.913   1_656  S
O318        C328   1.267       .  A
O319        V325   1.919   1_556  S
O319        C329   1.268   1_556  A
O320        V325   1.883   1_655  S
O320        C330   1.263       .  A
O321        V326   1.898   1_655  S
O322        V326   1.905       .  S
O323        V326   1.887   1_655  S
O324        V326   1.891       .  S
C327        C561   1.455       .  S
C328        C454   1.533       .  S
C329        C384   1.536   1_554  S
C330        C566   1.455       .  S
O331        V339   1.891       .  S
O332        V339   1.866   1_565  S
O333        V339   1.888       .  S
O334        V339   1.895   1_565  S
O335        V340   1.878   1_565  S
O335        C344   1.261       .  A
O336        V340   1.920   1_556  S
O336        C343   1.266       .  A
O337        V340   1.934   1_566  S
O337        C342   1.272       .  A
O338        V340   1.885       .  S
O338        C341   1.265       .  A
C341        C562   1.458       .  S
C342        C346   1.552       .  S
C343        C383   1.550       .  S
C344        C573   1.452       .  S
C345        C553   1.534       .  S
C346        C543   1.539       .  S
C346        C552   1.526       .  S
N347        C352   1.356       .  A
N347        C351   1.355       .  A
N347        H379   1.039       .  S
N348        C355   1.349       .  A
N348        C356   1.351       .  A
N349        C354   1.357       .  A
N349        C353   1.356       .  A
N349        H380   1.041       .  S
N350        C357   1.357       .  A
N350        C358   1.357       .  A
C351        C359   1.382       .  A
C351        C367   1.412       .  A
C352        C368   1.420       .  A
C352        C360   1.392       .  A
C353        C361   1.382       .  A
C353        C370   1.411       .  A
C354        C369   1.421       .  A
C354        C362   1.387       .  A
C355        C367   1.411       .  A
C355        C363   1.380       .  A
C356        C370   1.403       .  A
C356        C364   1.380       .  A
C357        C365   1.384       .  A
C357        C368   1.431       .  A
C358        C366   1.380       .  A
C358        C369   1.421       .  A
C359        C360   1.366       .  A
C359        H371   1.082       .  S
C360        H372   1.081       .  S
C361        C362   1.373       .  A
C361        H373   1.082       .  S
C362        H374   1.076       .  S
C363        C364   1.366       .  A
C363        H375   1.065       .  S
C364        H376   1.082       .  S
C365        C366   1.378       .  A
C365        H377   1.077       .  S
C366        H378   1.079       .  S
C367        C535   1.496       .  S
C368        C548   1.517       .  S
C369        C544   1.506       .  S
C370        C539   1.485       .  S
C381        C540   1.521       .  S
C381        C533   1.523       .  S
C382        C525   1.550       .  S
C382        C534   1.517       .  S
C383        C521   1.526       .  S
C383        C516   1.519       .  S
C384        C507   1.531       .  S
C384        C515   1.516       .  S
N385        C390   1.353       .  A
N385        C389   1.359       .  A
N385        H417   1.038       .  S
N386        C393   1.350       .  A
N386        C394   1.348       .  A
N387        C392   1.357       .  A
N387        C391   1.351       .  A
N387        H418   1.039       .  S
N388        C395   1.353       .  A
N388        C396   1.354       .  A
C389        C397   1.385       .  A
C389        C405   1.421       .  A
C390        C406   1.414       .  A
C390        C398   1.384       .  A
C391        C399   1.377       .  A
C391        C408   1.405       .  A
C392        C407   1.421       .  A
C392        C400   1.390       .  A
C393        C405   1.408       .  A
C393        C401   1.385       .  A
C394        C408   1.406       .  A
C394        C402   1.379       .  A
C395        C403   1.381       .  A
C395        C406   1.411       .  A
C396        C404   1.382       .  A
C396        C407   1.418       .  A
C397        C398   1.376       .  A
C397        H409   1.076       .  S
C398        H410   1.080       .  S
C399        C400   1.362       .  A
C399        H411   1.080       .  S
C400        H412   1.074       .  S
C401        C402   1.377       .  A
C401        H413   1.081       .  S
C402        H414   1.076       .  S
C403        C404   1.373       .  A
C403        H415   1.082       .  S
C404        H416   1.074       .  S
C405        C508   1.494       .  S
C406        C557   1.487       .  S
C407        C554   1.505       .  S
C408        C512   1.486       .  S
N419        C424   1.349       .  A
N419        C423   1.354       .  A
N419        H451   1.044       .  S
N420        C427   1.356       .  A
N420        C428   1.348       .  A
N421        C426   1.359       .  A
N421        C425   1.358       .  A
N421        H452   1.044       .  S
N422        C429   1.352       .  A
N422        C430   1.348       .  A
C423        C431   1.383       .  A
C423        C439   1.404       .  A
C424        C440   1.402       .  A
C424        C432   1.379       .  A
C425        C433   1.381       .  A
C425        C442   1.411       .  A
C426        C441   1.423       .  A
C426        C434   1.386       .  A
C427        C439   1.406       .  A
C427        C435   1.380       .  A
C428        C442   1.414       .  A
C428        C436   1.380       .  A
C429        C437   1.377       .  A
C429        C440   1.398       .  A
C430        C438   1.388       .  A
C430        C441   1.412       .  A
C431        C432   1.369       .  A
C431        H443   1.082       .  S
C432        H444   1.074       .  S
C433        C434   1.367       .  A
C433        H445   1.082       .  S
C434        H446   1.077       .  S
C435        C436   1.374       .  A
C435        H447   1.082       .  S
C436        H448   1.070       .  S
C437        C438   1.356       .  A
C437        H449   1.080       .  S
C438        H450   1.066       .  S
C439        C522   1.490       .  S
C440        C499   1.485       .  S
C441        C504   1.503       .  S
C442        C518   1.502       .  S
C453        C503   1.532       .  S
C454        C493   1.521       .  S
C454        C497   1.506       .  S
N455        C460   1.351       .  A
N455        C459   1.353       .  A
N455        H487   1.045       .  S
N456        C463   1.346       .  A
N456        C464   1.343       .  A
N457        C462   1.358       .  A
N457        C461   1.361       .  A
N457        H488   1.041       .  S
N458        C465   1.363       .  A
N458        C466   1.359       .  A
C459        C467   1.383       .  A
C459        C475   1.411       .  A
C460        C476   1.413       .  A
C460        C468   1.391       .  A
C461        C469   1.381       .  A
C461        C478   1.420       .  A
C462        C477   1.427       .  A
C462        C470   1.385       .  A
C463        C475   1.400       .  A
C463        C471   1.385       .  A
C464        C478   1.400       .  A
C464        C472   1.386       .  A
C465        C473   1.386       .  A
C465        C476   1.435       .  A
C466        C474   1.385       .  A
C466        C477   1.433       .  A
C467        C468   1.367       .  A
C467        H479   1.082       .  S
C468        H480   1.081       .  S
C469        C470   1.374       .  A
C469        H481   1.080       .  S
C470        H482   1.071       .  S
C471        C472   1.375       .  A
C471        H483   1.079       .  S
C472        H484   1.083       .  S
C473        C474   1.388       .  A
C473        H485   1.076       .  S
C474        H486   1.080       .  S
C475        C490   1.492       .  S
C476        C530   1.517       .  S
C477        C526   1.520       .  S
C478        C494   1.483       .  S
C489        C490   1.342       .  D
C489        H491   1.082       .  S
C490        H492   1.075       .  S
C493        C494   1.352       .  D
C493        H495   1.087       .  S
C494        H496   1.086       .  S
C497        C498   1.222       .  T
C499        C500   1.348       .  D
C499        H501   1.083       .  S
C500        H502   1.087       .  S
C503        C504   1.340       .  D
C503        H505   1.084       .  S
C504        H506   1.074       .  S
C507        C508   1.352       .  D
C507        H509   1.088       .  S
C508        H510   1.087       .  S
C511        C512   1.338       .  D
C511        H513   1.087       .  S
C512        H514   1.081       .  S
C515        C516   1.230       .  T
C517        C518   1.339       .  D
C517        H519   1.085       .  S
C518        H520   1.083       .  S
C521        C522   1.351       .  D
C521        H523   1.087       .  S
C522        H524   1.087       .  S
C525        C526   1.362       .  D
C525        H527   1.087       .  S
C526        H528   1.086       .  S
C529        C530   1.355       .  D
C529        H531   1.083       .  S
C530        H532   1.081       .  S
C533        C534   1.233       .  T
C535        C536   1.351       .  D
C535        H537   1.081       .  S
C536        H538   1.085       .  S
C539        C540   1.349       .  D
C539        H541   1.086       .  S
C540        H542   1.087       .  S
C543        C544   1.355       .  D
C543        H545   1.088       .  S
C544        H546   1.086       .  S
C547        C548   1.343       .  D
C547        H549   1.081       .  S
C548        H550   1.074       .  S
C551        C552   1.236       .  T
C553        C554   1.345       .  D
C553        H555   1.085       .  S
C554        H556   1.084       .  S
C557        C558   1.347       .  D
C557        H559   1.087       .  S
C558        H560   1.087       .  S
C561        C562   1.331       .  D
C562        H564   1.081       .  S
C565        C566   1.328       .  D
C565        H567   1.088       .  S
C569        C570   1.332       .  D
C569        H571   1.080       .  S
C573        C574   1.327       .  D
C573        H575   1.088       .  S
