geometry optimzed in LAMMPS
_audit_creation_date              2020-12-01 
_audit_creation_method            'lammps2cif' 
_symmetry_space_group_name_H-M    'P1' 
_symmetry_Int_Tables_number       1 
_symmetry_cell_setting            triclinic 
loop_ 
_symmetry_equiv_pos_as_xyz 
  x,y,z 
_cell_length_a                    39.90023725 
_cell_length_b                    34.504611093250205 
_cell_length_c                    39.48502518241398 
_cell_angle_alpha                 83.64772712765154 
_cell_angle_beta                  76.69837053431436 
_cell_angle_gamma                 89.65062181830764 
loop_ 
_atom_site_label 
_atom_site_type_symbol 
_atom_site_fract_x 
_atom_site_fract_y 
_atom_site_fract_z 
_atom_site_charge 
Zr1        Zr  0.97298631  0.96731815  0.44145763     2.17500
O2          O  0.93762396  0.99071536  0.40080312    -0.51300
O3          O  0.94894696  0.90104042  0.44820403    -0.74500
O4          O  0.99825990  0.95656862  0.38087355    -0.81300
O5          O  0.90683236  0.00345489  0.51684133    -0.83100
O6          O  0.05610812  0.95041692  0.37375787    -0.78700
O7          O  0.91293060  0.98152086  0.46358809    -0.90300
O8          O  0.96893485  0.86392415  0.49022785    -0.76300
O9          O  0.01832017  0.92446040  0.44855035    -0.85800
O10         O  0.96272882  0.94629684  0.50249114    -0.85500
O11         O  0.02439988  0.00731911  0.42025775    -0.72200
O12         O  0.97291986  0.02595927  0.46953850    -0.84400
Zr13       Zr  0.06047440  0.99907973  0.51902090     2.26400
Zr14       Zr  0.06969350  0.96394843  0.42849570     2.06300
Zr15       Zr  0.96307330  0.00398868  0.53068793     2.10000
Zr16       Zr  0.00845814  0.90426148  0.50976014     1.78800
O17         O  0.93652454  0.06627474  0.54298396    -0.93200
O18         O  0.04537586  0.85193475  0.48730354    -0.41000
O19         O  0.00823788  0.96090561  0.53991204    -0.77600
O20         O  0.06088286  0.94150654  0.48976697    -0.96300
O21         O  0.07096449  0.02070367  0.45801072    -0.89600
O22         O  0.01504756  0.04208583  0.51147232    -0.92400
C23         C  0.95016815  0.86897214  0.46781934     1.01300
C24         C  0.89475255  0.99358151  0.49153695     1.14200
C25         C  0.02853475  0.95148869  0.36215041     1.05000
O26         O  0.09639191  0.90226137  0.41448302    -0.94600
O27         O  0.12632104  0.96426257  0.44106347    -0.90300
O28         O  0.12093708  0.98538539  0.49470190    -0.83500
C29         C  0.13868118  0.97279609  0.46662299     1.11700
O30         O  0.00058693  0.09780137  0.40542441    -0.96600
Zr31       Zr  0.02581546  0.06357483  0.45072008     1.88900
O32         O  0.08548791  0.06382968  0.51421390    -0.73200
O33         O  0.10777856  0.00409081  0.38049608    -0.52500
O34         O  0.07115199  0.08946370  0.40077872    -0.97200
O35         O  0.99043177  0.11849230  0.46974624    -0.54400
O36         O  0.06390132  0.10278059  0.47433421    -0.73700
C37         C  0.08273826  0.09683065  0.49676281     0.98600
O38         O  0.08890823  0.96809493  0.56329735    -0.62600
O39         O  0.92308032  0.96920941  0.58070500    -0.57400
O40         O  0.03560290  0.01609458  0.57824233    -0.94000
O41         O  0.97743252  0.01712924  0.58476965    -0.92500
O42         O  0.96670156  0.87541589  0.56136894    -0.92800
O43         O  0.03425130  0.87168204  0.55521250    -0.91600
C44         C  0.00474270  0.02035123  0.59623850     1.17500
H45         H  0.94082217  0.93263442  0.51087605     0.33400
H46         H  0.07950538  0.92500186  0.49383730     0.44300
H47         H  0.01432918  0.06387397  0.52504348     0.37800
H48         H  0.02710255  0.01652676  0.39580477     0.34300
H49         H  0.03422031  0.82774326  0.50096157     0.26000
H50         H  0.12099396  0.98523562  0.36569117     0.32000
H51         H  0.09297502  0.08127316  0.40705480     0.37900
H52         H  0.96459585  0.89490208  0.57832652     0.32400
H53         H  0.90440050  0.98785524  0.58746018     0.31200
H54         H  0.95276268  0.08016800  0.55321761     0.32900
H55         H  0.99598385  0.12360876  0.49204107     0.31900
H56         H  0.03983275  0.89295912  0.56801767     0.35900
H57         H  0.07016543  0.95603606  0.58248576     0.28600
H58         H  0.93451943  0.96838773  0.38798799     0.32800
H59         H  0.01264244  0.12350199  0.39916399     0.35700
H60         H  0.91229107  0.94857085  0.57099054     0.28300
H61         H  0.10085199  0.94540401  0.55305461     0.41200
H62         H  0.10286691  0.89098360  0.43620003     0.31200
H63         H  0.04190034  0.85059827  0.46342567     0.38800
H64         H  0.96657610  0.10776242  0.47668534     0.30700
H65         H  0.09249389  0.01680164  0.36627007     0.30800
H66         H  0.95226563  0.00990677  0.38314856     0.31000
Zr67       Zr  0.55147783  0.01830371  0.53132552     2.17500
O68         O  0.55171232  0.07141326  0.56729270    -0.51300
O69         O  0.61122559  0.00055139  0.52626483    -0.74500
O70         O  0.54843702  0.99446832  0.59233922    -0.81300
O71         O  0.56517190  0.09412616  0.45030948    -0.83100
O72         O  0.51473200  0.93948410  0.60519246    -0.78700
O73         O  0.57912690  0.07894906  0.50294773    -0.90300
O74         O  0.62327934  0.95422981  0.48881658    -0.76300
O75         O  0.55145752  0.94941142  0.53156723    -0.85800
O76         O  0.57143627  0.00681138  0.47168061    -0.85500
O77         O  0.49273488  0.99828961  0.55604992    -0.72200
O78         O  0.51265275  0.05113431  0.49999135    -0.84400
Zr79       Zr  0.47210542  0.94670304  0.46558196     2.26400
Zr80       Zr  0.49276590  0.92908861  0.55464925     2.06300
Zr81       Zr  0.53197339  0.03775995  0.44051446     2.10000
Zr82       Zr  0.57076326  0.93798752  0.47207899     1.78800
O83         O  0.50238313  0.09392575  0.41916263    -0.93200
O84         O  0.58845400  0.87699396  0.49950421    -0.41000
O85         O  0.53089594  0.96815799  0.44089252    -0.77600
O86         O  0.51261426  0.91450745  0.49544420    -0.96300
O87         O  0.45254363  0.96012058  0.52452422    -0.89600
O88         O  0.47321979  0.01623432  0.46400794    -0.92400
C89         C  0.63189747  0.97756723  0.50863215     1.01300
C90         C  0.58014108  0.10151003  0.47469861     1.14200
C91         C  0.53351752  0.96529763  0.61332718     1.05000
O92         O  0.51547464  0.86846945  0.57716440    -0.94600
O93         O  0.45800702  0.87417886  0.54902491    -0.90300
O94         O  0.44718350  0.88321460  0.49472360    -0.83500
C95         C  0.44484535  0.86339833  0.52483539     1.11700
O96         O  0.45196338  0.08028758  0.56185036    -0.96600
Zr97       Zr  0.45437928  0.02923008  0.52333712     1.88900
O98         O  0.41150339  0.96412169  0.47366278    -0.73200
O99         O  0.44234094  0.92462975  0.60336226    -0.52500
O100        O  0.41038660  0.01655411  0.57763809    -0.97200
O101        O  0.43951160  0.09152263  0.49535635    -0.54400
O102        O  0.40173175  0.01446516  0.50696289    -0.73700
C103        C  0.39187022  0.98928951  0.48967312     0.98600
O104        O  0.46337702  0.90183949  0.42459484    -0.62600
O105        O  0.58190532  0.04777268  0.39127961    -0.57400
O106        O  0.48245280  0.96528258  0.40278058    -0.94000
O107        O  0.51837513  0.01856127  0.38727932    -0.92500
O108        O  0.61533090  0.95231980  0.41852270    -0.92800
O109        O  0.57489657  0.88732208  0.43310170    -0.91600
C110        C  0.50012533  0.99131661  0.38002704     1.17500
H111        H  0.59431382  0.01749809  0.46208303     0.33400
H112        H  0.51217700  0.88673626  0.49432311     0.44300
H113        H  0.45843988  0.02803697  0.44963915     0.37800
H114        H  0.48575064  0.00453573  0.57980573     0.34300
H115        H  0.61215655  0.87319087  0.48589233     0.26000
H116        H  0.44889965  0.90636907  0.62181700     0.32000
H117        H  0.39750643  0.99314201  0.57481845     0.37900
H118        H  0.60468369  0.97094244  0.40338172     0.32400
H119        H  0.57920754  0.07422538  0.37979759     0.31200
H120        H  0.51910531  0.10615198  0.39820317     0.32900
H121        H  0.42846662  0.08492029  0.47665192     0.31900
H122        H  0.55095218  0.88304848  0.43107949     0.35900
H123        H  0.47562125  0.87779504  0.43024295     0.28600
H124        H  0.57179353  0.06691737  0.57791480     0.32800
H125        H  0.42950853  0.09296115  0.56259044     0.35700
H126        H  0.60189935  0.05030414  0.40184276     0.28300
H127        H  0.43859527  0.89443348  0.43145898     0.41200
H128        H  0.53442741  0.86197586  0.55776961     0.31200
H129        H  0.59157116  0.88319828  0.52248901     0.38800
H130        H  0.46188690  0.10384917  0.48272569     0.30700
H131        H  0.44129939  0.95035114  0.61239797     0.30800
H132        H  0.53128982  0.06662844  0.58705979     0.31000
Zr133      Zr  0.18244858  0.47720338  0.49523544     2.17500
O134        O  0.14284989  0.49848126  0.45839155    -0.51300
O135        O  0.16818038  0.40851834  0.49761052    -0.74500
O136        O  0.20627388  0.47037359  0.43332860    -0.81300
O137        O  0.11519930  0.49950628  0.57691304    -0.83100
O138        O  0.26393326  0.48337913  0.42023433    -0.78700
O139        O  0.12177259  0.48360632  0.52133440    -0.90300
O140        O  0.20063019  0.37315774  0.52963780    -0.76300
O141        O  0.23590667  0.44583134  0.49384297    -0.85800
O142        O  0.17962280  0.45018266  0.55410566    -0.85500
O143        O  0.22541929  0.52786362  0.47385027    -0.72200
O144        O  0.17372849  0.53062922  0.53024778    -0.84400
Zr145      Zr  0.27041596  0.52399283  0.56548161     2.26400
Zr146      Zr  0.27922216  0.49629173  0.47403313     2.06300
Zr147      Zr  0.17295361  0.50362369  0.58898286     2.10000
Zr148      Zr  0.23318136  0.41938310  0.55266592     1.78800
O149        O  0.14130377  0.55776439  0.61481414    -0.93200
O150        O  0.27491491  0.37262270  0.52732872    -0.41000
O151        O  0.22725110  0.47309432  0.58711822    -0.77600
O152        O  0.27792827  0.46853416  0.53263307    -0.96300
O153        O  0.27165565  0.55090237  0.50723235    -0.89600
O154        O  0.21607831  0.55450071  0.56836149    -0.92400
C155        C  0.17817706  0.37611509  0.51086677     1.01300
C156        C  0.10315595  0.49224695  0.55053852     1.14200
C157        C  0.23589408  0.47466932  0.41180981     1.05000
O158        O  0.31506212  0.44260915  0.45310022    -0.94600
O159        O  0.33731278  0.50456535  0.48283463    -0.90300
O160        O  0.33151646  0.51958367  0.53840672    -0.83500
C161        C  0.34983830  0.51229025  0.50861184     1.11700
O162        O  0.17680673  0.60736019  0.47588615    -0.96600
Zr163      Zr  0.21717584  0.58042741  0.50966345     1.88900
O164        O  0.28814459  0.59292240  0.55811672    -0.73200
O165        O  0.30723347  0.54512006  0.42686558    -0.52500
O166        O  0.24440348  0.62087391  0.45594069    -0.97200
O167        O  0.17733312  0.62599876  0.54000803    -0.54400
O168        O  0.25522748  0.62596864  0.52519322    -0.73700
C169        C  0.27915671  0.62431119  0.54197903     0.98600
O170        O  0.30581822  0.50614207  0.60745570    -0.62600
O171        O  0.14176414  0.45494486  0.63466169    -0.57400
O172        O  0.24886183  0.52764720  0.62754509    -0.94000
O173        O  0.19266449  0.50730077  0.64324701    -0.92500
O174        O  0.19676947  0.38350342  0.60457525    -0.92800
O175        O  0.26838659  0.39145805  0.59172876    -0.91600
C176        C  0.22104043  0.51761280  0.65046547     1.17500
H177        H  0.16059966  0.43175632  0.56234474     0.33400
H178        H  0.29942892  0.45610084  0.53369706     0.44300
H179        H  0.21299591  0.57473662  0.58382265     0.37800
H180        H  0.22465352  0.53830068  0.45036081     0.34300
H181        H  0.26440642  0.34672934  0.53739953     0.26000
H182        H  0.31396175  0.56654213  0.43884985     0.32000
H183        H  0.25648343  0.60240179  0.44003323     0.37900
H184        H  0.20300796  0.35585976  0.60277972     0.32400
H185        H  0.12250984  0.46924687  0.64806365     0.31200
H186        H  0.12184350  0.54531679  0.63293716     0.32900
H187        H  0.18949943  0.63692111  0.55612090     0.31900
H188        H  0.28147637  0.41396128  0.59606486     0.35900
H189        H  0.31907071  0.48320761  0.59935888     0.28600
H190        H  0.14140460  0.47701307  0.44405434     0.32800
H191        H  0.17489199  0.58754173  0.46008041     0.35700
H192        H  0.13056843  0.43714901  0.62240094     0.28300
H193        H  0.32311906  0.52754934  0.60398309     0.41200
H194        H  0.32977979  0.45372856  0.43039470     0.31200
H195        H  0.27398706  0.37461485  0.50235822     0.38800
H196        H  0.15861880  0.60937165  0.55552699     0.30700
H197        H  0.32928191  0.53338640  0.41612634     0.30800
H198        H  0.15503113  0.52015868  0.44163432     0.31000
Zr199      Zr  0.69449906  0.48144889  0.45627357     2.17500
O200        O  0.66665900  0.51613127  0.41332074    -0.51300
O201        O  0.67403271  0.41541899  0.45530612    -0.74500
O202        O  0.72289508  0.46832187  0.39745957    -0.81300
O203        O  0.62128013  0.50660304  0.53063200    -0.83100
O204        O  0.78079147  0.47620379  0.39073544    -0.78700
O205        O  0.63290041  0.48859493  0.47539817    -0.90300
O206        O  0.69826972  0.37539922  0.49225690    -0.76300
O207        O  0.74248200  0.44222081  0.46239873    -0.85800
O208        O  0.68177679  0.45485482  0.51616317    -0.85500
O209        O  0.74357218  0.52518655  0.43992917    -0.72200
O210        O  0.68742588  0.53637403  0.48952817    -0.84400
Zr211      Zr  0.77303727  0.51285657  0.54134368     2.26400
Zr212      Zr  0.79150001  0.48575771  0.44789394     2.06300
Zr213      Zr  0.67567121  0.50936448  0.54951607     2.10000
Zr214      Zr  0.72966053  0.41578398  0.52215109     1.78800
O215        O  0.64527523  0.56914642  0.56308796    -0.93200
O216        O  0.77117561  0.36643786  0.50204262    -0.41000
O217        O  0.72344433  0.46946673  0.55698844    -0.77600
O218        O  0.77982929  0.45785637  0.50788319    -0.96300
O219        O  0.78521143  0.53969718  0.48159387    -0.89600
O220        O  0.72509096  0.55218662  0.53475757    -0.92400
C221        C  0.67945074  0.38155271  0.46983960     1.01300
C222        C  0.61212262  0.49823624  0.50297724     1.14200
C223        C  0.75398648  0.46966623  0.37908828     1.05000
O224        O  0.82358850  0.42811541  0.43064227    -0.94600
O225        O  0.84607221  0.48990472  0.46600372    -0.90300
O226        O  0.83526576  0.50747611  0.52134015    -0.83500
C227        C  0.85583814  0.49849444  0.49323352     1.11700
O228        O  0.70118741  0.61452733  0.44070345    -0.96600
Zr229      Zr  0.73739908  0.57847298  0.47479663     1.88900
O230        O  0.79698491  0.57867905  0.53767282    -0.73200
O231        O  0.83072925  0.53000961  0.40449346    -0.52500
O232        O  0.77062819  0.60775696  0.41806423    -0.97200
O233        O  0.70872776  0.63333087  0.50269852    -0.54400
O234        O  0.78201564  0.61413469  0.49158624    -0.73700
C235        C  0.79877315  0.60957827  0.51581857     0.98600
O236        O  0.79943671  0.47827598  0.58566588    -0.62600
O237        O  0.63597791  0.46910654  0.59602584    -0.57400
O238        O  0.74430505  0.52450295  0.60085559    -0.94000
O239        O  0.68632139  0.51956287  0.60657610    -0.92500
O240        O  0.68530656  0.37821912  0.56600220    -0.92800
O241        O  0.75342869  0.38379585  0.56933897    -0.91600
C242        C  0.71300797  0.52431556  0.61894811     1.17500
H243        H  0.66089542  0.43917376  0.52206446     0.33400
H244        H  0.79918401  0.44267233  0.51214478     0.44300
H245        H  0.72234981  0.57263252  0.54996619     0.37800
H246        H  0.74669989  0.53569122  0.41574840     0.34300
H247        H  0.75829870  0.34133973  0.50958964     0.26000
H248        H  0.84139745  0.51384564  0.38579535     0.32000
H249        H  0.79414173  0.61169348  0.42144086     0.37900
H250        H  0.67751261  0.39573003  0.58438707     0.32400
H251        H  0.61567194  0.48563525  0.60270783     0.31200
H252        H  0.62672209  0.56109615  0.58405182     0.32900
H253        H  0.72004507  0.63723479  0.52192361     0.31900
H254        H  0.74529873  0.39925082  0.58923894     0.35900
H255        H  0.78020419  0.46427420  0.60300995     0.28600
H256        H  0.66210701  0.49636684  0.39848994     0.32800
H257        H  0.71081112  0.64149160  0.43544079     0.35700
H258        H  0.62777511  0.44839764  0.58425850     0.28300
H259        H  0.81260145  0.45709273  0.57401007     0.41200
H260        H  0.84438426  0.43848488  0.41309723     0.31200
H261        H  0.77470514  0.36977243  0.47622865     0.38800
H262        H  0.68533255  0.62325955  0.51465653     0.30700
H263        H  0.81558207  0.54783446  0.39376587     0.30800
H264        H  0.68484873  0.53356545  0.39786923     0.31000
Zr265      Zr  0.96982609  0.05465189  0.93726509     2.17500
O266        O  0.97512308  0.11127037  0.89334721    -0.51300
O267        O  0.90922635  0.04208516  0.94029389    -0.74500
O268        O  0.97841399  0.03661222  0.87732731    -0.81300
O269        O  0.95299353  0.12020525  0.01129992    -0.83100
O270        O  0.00721820  0.97948733  0.87580304    -0.78700
O271        O  0.94567339  0.11549476  0.95633921    -0.90300
O272        O  0.89176012  0.99174972  0.98287316    -0.76300
O273        O  0.96391360  0.98534395  0.94681493    -0.85800
O274        O  0.94484405  0.03853804  0.99832635    -0.85500
O275        O  0.02755185  0.03152503  0.92037073    -0.72200
O276        O  0.00794502  0.08088907  0.96869174    -0.84400
Zr277      Zr  0.03508529  0.97049595  0.02297680     2.26400
Zr278      Zr  0.02133264  0.96194565  0.93178335     2.06300
Zr279      Zr  0.98318122  0.06308820  0.02973923     2.10000
Zr280      Zr  0.93960863  0.96950646  0.00765693     1.78800
O281        O  0.01292083  0.11830107  0.04403136    -0.93200
O282        O  0.92211176  0.91046016  0.98718136    -0.41000
O283        O  0.97749264  0.99371790  0.03985705    -0.77600
O284        O  0.99635301  0.94381513  0.99257948    -0.96300
O285        O  0.05982023  0.98715778  0.96238309    -0.89600
O286        O  0.04042903  0.03984596  0.01368153    -0.92400
C287        C  0.88613655  0.01838287  0.95956325     1.01300
C288        C  0.94208523  0.13294813  0.98403317     1.14200
C289        C  0.99279279  0.00800991  0.86145122     1.05000
O290        O  0.99223977  0.90385616  0.92182410    -0.94600
O291        O  0.05469195  0.90690347  0.94725510    -0.90300
O292        O  0.06343659  0.91237925  0.00147307    -0.83500
C293        C  0.06701562  0.89502152  0.97372020     1.11700
O294        O  0.07252154  0.11212078  0.90810012    -0.96600
Zr295      Zr  0.06488890  0.05617532  0.95286145     1.88900
O296        O  0.09546374  0.98447623  0.01952934    -0.73200
O297        O  0.07276752  0.95394323  0.88613348    -0.52500
O298        O  0.11063091  0.04530684  0.90230675    -0.97200
O299        O  0.08510876  0.11329498  0.97414974    -0.54400
O300        O  0.11400289  0.03209526  0.97451121    -0.73700
C301        C  0.11903085  0.00664044  0.99900915     0.98600
O302        O  0.02661390  0.91602250  0.06954073    -0.62600
O303        O  0.93287335  0.06879001  0.07733109    -0.57400
O304        O  0.02788257  0.98739633  0.08253955    -0.94000
O305        O  0.99523280  0.04170504  0.08675187    -0.92500
O306        O  0.89173743  0.97984699  0.05645720    -0.92800
O307        O  0.92836259  0.91733314  0.05591370    -0.91600
C308        C  0.01157420  0.01387036  0.09989570     1.17500
H309        H  0.92252458  0.05024718  0.00487571     0.33400
H310        H  0.99499301  0.91577953  0.99754908     0.44300
H311        H  0.05458410  0.04938349  0.02785368     0.37800
H312        H  0.03718872  0.03924231  0.89595352     0.34300
H313        H  0.89806568  0.90529538  0.00060996     0.26000
H314        H  0.06606979  0.93433338  0.87227456     0.32000
H315        H  0.11367217  0.01671255  0.90428937     0.37900
H316        H  0.88319424  0.00611091  0.05042959     0.32400
H317        H  0.93590292  0.09442144  0.08542314     0.31200
H318        H  0.99437038  0.13396845  0.05687361     0.32900
H319        H  0.09152741  0.10346762  0.99626463     0.31900
H320        H  0.95117396  0.90595937  0.05606847     0.35900
H321        H  0.00321595  0.91936532  0.08408795     0.28600
H322        H  0.95667709  0.10790039  0.88083524     0.32800
H323        H  0.09682011  0.12083823  0.90440091     0.35700
H324        H  0.91320137  0.07219912  0.06598633     0.28300
H325        H  0.02420972  0.89221587  0.05837685     0.41200
H326        H  0.97171758  0.91366679  0.91374252     0.31200
H327        H  0.91998246  0.91869210  0.96295691     0.38800
H328        H  0.06414790  0.12861163  0.98151473     0.30700
H329        H  0.07559711  0.97868747  0.87037312     0.30800
H330        H  0.99693223  0.10802723  0.87597469     0.31000
Zr331      Zr  0.46716115  0.05123273  0.94947279     2.17500
O332        O  0.47157913  0.10969529  0.90774958    -0.51300
O333        O  0.40910681  0.03217527  0.94833200    -0.69700
O334        O  0.47938838  0.03539056  0.88916910    -0.81300
O335        O  0.44148341  0.11522171  0.02368851    -0.83100
O336        O  0.51287600  0.98184533  0.88697183    -0.78700
O337        O  0.43606513  0.10798412  0.96854772    -0.90300
O338        O  0.39169884  0.98306776  0.99218925    -0.76300
O339        O  0.46635570  0.98189816  0.95697105    -0.85800
O340        O  0.44007529  0.03206583  0.00932111    -0.85500
O341        O  0.52657019  0.03434323  0.93447950    -0.72200
O342        O  0.50117182  0.08044480  0.98324256    -0.84400
Zr343      Zr  0.53310489  0.97130480  0.03740330     2.26400
Zr344      Zr  0.52545991  0.96453775  0.94365753     2.06300
Zr345      Zr  0.47411512  0.05990528  0.04310801     2.10000
Zr346      Zr  0.44012342  0.96290020  0.01692304     1.78800
O347        O  0.49530793  0.11939684  0.05956708    -0.93200
O348        O  0.42445295  0.90567914  0.99236462    -0.41000
O349        O  0.47366510  0.98992009  0.05215367    -0.77600
O350        O  0.49882178  0.94281518  0.00344788    -0.96300
O351        O  0.55963122  0.99143867  0.97777903    -0.89600
O352        O  0.53309591  0.04102720  0.02966634    -0.92400
C353        C  0.38634093  0.00811687  0.96755008     1.01300
C354        C  0.43058160  0.12606645  0.99586460     1.14200
C355        C  0.49681607  0.00898518  0.87276335     1.05000
O356        O  0.50117895  0.90448604  0.93130522    -0.94600
O357        O  0.56413423  0.91510483  0.95877061    -0.90300
O358        O  0.56567585  0.91481275  0.01612731    -0.83500
C359        C  0.57420408  0.90142669  0.98617847     1.11700
O360        O  0.57173020  0.12241085  0.93301797    -0.96600
Zr361      Zr  0.55990060  0.06041942  0.97007581     1.88900
O362        O  0.59331430  0.98642882  0.03446779    -0.73200
O363        O  0.57772093  0.96338943  0.89739388    -0.52500
O364        O  0.60159629  0.05277372  0.91555050    -0.97200
O365        O  0.57944364  0.11387752  0.99688902    -0.54400
O366        O  0.60933593  0.03496764  0.98989367    -0.73700
C367        C  0.61592334  0.00934022  0.01337754     0.98600
O368        O  0.52379793  0.91437385  0.08127653    -0.62600
O369        O  0.42067960  0.05844749  0.08819050    -0.57400
O370        O  0.52504521  0.99104888  0.09645123    -0.94000
O371        O  0.48997030  0.04358875  0.09884465    -0.92500
O372        O  0.39323364  0.96966343  0.06751878    -0.92800
O373        O  0.43168345  0.90444770  0.05878734    -0.91600
C374        C  0.50818596  0.01823718  0.11249142     1.17500
H375        H  0.41683983  0.04159049  0.01514203     0.33400
H376        H  0.49934163  0.91477430  0.00752508     0.44300
H377        H  0.54571613  0.05169677  0.04468193     0.37800
H378        H  0.53660871  0.04353282  0.91032745     0.34300
H379        H  0.39894822  0.90528486  0.99767149     0.26000
H380        H  0.57234430  0.94535529  0.88144162     0.32000
H381        H  0.62410480  0.04972675  0.92197068     0.37900
H382        H  0.37385109  0.95426947  0.06365966     0.32400
H383        H  0.40203268  0.05630671  0.07570168     0.31200
H384        H  0.47723006  0.12589522  0.07978358     0.32900
H385        H  0.59401756  0.10187220  0.01221869     0.31900
H386        H  0.44598272  0.90921102  0.07540633     0.35900
H387        H  0.50359581  0.92055035  0.09953036     0.28600
H388        H  0.45614896  0.10489256  0.89220806     0.32800
H389        H  0.59711916  0.12588671  0.92713019     0.35700
H390        H  0.42033192  0.03281031  0.10229385     0.28300
H391        H  0.51507925  0.89363562  0.06988200     0.41200
H392        H  0.49976477  0.88598480  0.95264038     0.31200
H393        H  0.43147748  0.91240367  0.96667041     0.38800
H394        H  0.55858225  0.12200511  0.01326953     0.30700
H395        H  0.57957347  0.98950867  0.88382027     0.30800
H396        H  0.49518214  0.10964792  0.89277559     0.31000
Zr397      Zr  0.20664358  0.54906916  0.98756780     2.17500
O398        O  0.21046494  0.60085942  0.93938828    -0.51300
O399        O  0.14585064  0.53510508  0.99611131    -0.74500
O400        O  0.20404986  0.52310914  0.93325301    -0.81300
O401        O  0.19826038  0.62027193  0.05672836    -0.83100
O402        O  0.23878908  0.47065066  0.92588228    -0.78700
O403        O  0.18670187  0.61285109  0.00392572    -0.90300
O404        O  0.13204794  0.48111576  0.03543904    -0.76300
O405        O  0.20458006  0.47969268  0.99736129    -0.85800
O406        O  0.18405575  0.53341273  0.04893806    -0.85500
O407        O  0.26479278  0.52894985  0.96674263    -0.72200
O408        O  0.24577781  0.57823885  0.01553055    -0.84400
Zr409      Zr  0.27919856  0.47152342  0.06786103     2.26400
Zr410      Zr  0.26252546  0.45903573  0.97812121     2.06300
Zr411      Zr  0.22397232  0.56092152  0.07694528     2.10000
Zr412      Zr  0.18233533  0.46405797  0.05848971     1.78800
O413        O  0.24905726  0.61749441  0.09445515    -0.93200
O414        O  0.16212364  0.40391957  0.04201058    -0.41000
O415        O  0.22110653  0.49141876  0.08810919    -0.77600
O416        O  0.24003070  0.44180497  0.03976713    -0.96300
O417        O  0.30125424  0.48763931  0.00659303    -0.89600
O418        O  0.28197032  0.54081748  0.05805078    -0.92400
C419        C  0.12465378  0.50851935  0.01375438     1.01300
C420        C  0.18677812  0.63256189  0.02976087     1.14200
C421        C  0.21780875  0.49546697  0.91581875     1.05000
O422        O  0.24144598  0.39681766  0.96669721    -0.94600
O423        O  0.29839541  0.40541532  0.99458756    -0.90300
O424        O  0.30930734  0.41502457  0.04719321    -0.83500
C425        C  0.31223455  0.39593913  0.02071554     1.11700
O426        O  0.30750055  0.61250523  0.95204676    -0.96600
Zr427      Zr  0.30321258  0.55677554  0.99666679     1.88900
O428        O  0.34003018  0.48667253  0.06055934    -0.73200
O429        O  0.31247279  0.46174543  0.92892799    -0.52500
O430        O  0.34853031  0.54889798  0.94492981    -0.97200
O431        O  0.32011844  0.61578415  0.01783739    -0.54400
O432        O  0.35421435  0.53572270  0.01608569    -0.73700
C433        C  0.36182602  0.51013153  0.03910649     0.98600
O434        O  0.27312506  0.41556331  0.11271422    -0.62600
O435        O  0.17107616  0.56471820  0.12170764    -0.57400
O436        O  0.27477979  0.48959361  0.12658626    -0.94000
O437        O  0.24077669  0.54276770  0.13189508    -0.92500
O438        O  0.13945475  0.47517909  0.11116436    -0.92800
O439        O  0.17627791  0.40830983  0.10317999    -0.91600
C440        C  0.25874616  0.51607792  0.14409467     1.17500
H441        H  0.16155757  0.54422318  0.05648294     0.33400
H442        H  0.23992132  0.41379105  0.04524989     0.44300
H443        H  0.29676206  0.55153294  0.07118854     0.37800
H444        H  0.27226893  0.53691304  0.94184678     0.34300
H445        H  0.13778291  0.40079541  0.05517788     0.26000
H446        H  0.30748480  0.44178402  0.91449518     0.32000
H447        H  0.35390578  0.52081071  0.94714187     0.37900
H448        H  0.12431143  0.49539747  0.10335328     0.32400
H449        H  0.16583101  0.53744127  0.13227954     0.31200
H450        H  0.23243653  0.62363286  0.11588677     0.32900
H451        H  0.33435315  0.60683524  0.03457568     0.31900
H452        H  0.19249652  0.41404298  0.11762646     0.35900
H453        H  0.25301124  0.42109368  0.13135421     0.28600
H454        H  0.18911548  0.59821290  0.93101788     0.32800
H455        H  0.33106586  0.62350220  0.94859563     0.35700
H456        H  0.17801894  0.57776526  0.14020411     0.28300
H457        H  0.26485944  0.39367657  0.10232587     0.41200
H458        H  0.23465957  0.38137312  0.98996795     0.31200
H459        H  0.16080810  0.41024876  0.01728467     0.38800
H460        H  0.29859140  0.62474744  0.03260173     0.30700
H461        H  0.31086873  0.48692608  0.91474841     0.30800
H462        H  0.22923635  0.59339117  0.92019575     0.31000
Zr463      Zr  0.71649010  0.55288451  0.95643234     2.17500
O464        O  0.72529099  0.61020223  0.91308593    -0.51300
O465        O  0.65509375  0.54456213  0.96010980    -0.74500
O466        O  0.72196205  0.53493730  0.89673612    -0.81300
O467        O  0.70794264  0.61756037  0.03060780    -0.83100
O468        O  0.74801343  0.47603279  0.89432098    -0.78700
O469        O  0.69728288  0.61607461  0.97650422    -0.90300
O470        O  0.63610761  0.49512907  0.00314408    -0.76300
O471        O  0.70728550  0.48373607  0.96588355    -0.85800
O472        O  0.69175524  0.53691017  0.01746690    -0.85500
O473        O  0.77251781  0.52491954  0.93899839    -0.72200
O474        O  0.75742901  0.57419469  0.98700219    -0.84400
Zr475      Zr  0.77756009  0.46111222  0.04159610     2.26400
Zr476      Zr  0.76290139  0.45555342  0.95002915     2.06300
Zr477      Zr  0.73251145  0.55706332  0.04810565     2.10000
Zr478      Zr  0.68274314  0.46816511  0.02671038     1.78800
O479        O  0.76138934  0.61268172  0.06277389    -0.93200
O480        O  0.66039740  0.41296753  0.00449639    -0.41000
O481        O  0.72189270  0.48837401  0.05948322    -0.77600
O482        O  0.73740560  0.43834243  0.01093929    -0.96300
O483        O  0.80315332  0.47643044  0.98080386    -0.89600
O484        O  0.78781816  0.52964363  0.03143605    -0.92400
C485        C  0.63126475  0.52202165  0.97979065     1.01300
C486        C  0.69705315  0.63279029  0.00422499     1.14200
C487        C  0.73427962  0.50569597  0.88047418     1.05000
O488        O  0.73181516  0.39968240  0.93861777    -0.94600
O489        O  0.79271451  0.39717915  0.96723193    -0.90300
O490        O  0.80156339  0.40080545  0.02178351    -0.83500
C491        C  0.80414520  0.38373253  0.99408349     1.11700
O492        O  0.82863432  0.59956394  0.92499609    -0.96600
Zr493      Zr  0.81255486  0.54497232  0.97077081     1.88900
O494        O  0.83823513  0.46884823  0.03844257    -0.73200
O495        O  0.81395442  0.44744966  0.90394444    -0.52500
O496        O  0.85625020  0.53083913  0.91966478    -0.97200
O497        O  0.83367890  0.60139209  0.99238829    -0.54400
O498        O  0.85938389  0.51698233  0.99461065    -0.73700
C499        C  0.86278656  0.49038306  0.01900191     0.98600
O500        O  0.76382254  0.40692533  0.08812828    -0.62600
O501        O  0.68068311  0.56039609  0.09437177    -0.57400
O502        O  0.77661021  0.48095134  0.09924812    -0.94000
O503        O  0.75097406  0.53991267  0.10228714    -0.92500
O504        O  0.63676142  0.47996355  0.07672824    -0.92800
O505        O  0.66846506  0.41335193  0.07229418    -0.91600
C506        C  0.76595852  0.51080156  0.11523437     1.17500
H507        H  0.67033815  0.55032145  0.02452536     0.33400
H508        H  0.73425550  0.41036558  0.01607244     0.44300
H509        H  0.80297986  0.53799458  0.04519710     0.37800
H510        H  0.78214712  0.53242173  0.91446896     0.34300
H511        H  0.63536415  0.41213342  0.01527479     0.26000
H512        H  0.80782542  0.42585092  0.89181717     0.32000
H513        H  0.85843186  0.50214365  0.92248245     0.37900
H514        H  0.63437071  0.50863434  0.07500324     0.32400
H515        H  0.68003988  0.53565494  0.10986052     0.31200
H516        H  0.74435148  0.62288002  0.08198138     0.32900
H517        H  0.84478100  0.59056304  0.01125993     0.31900
H518        H  0.68898950  0.41056938  0.08238722     0.35900
H519        H  0.74432663  0.41588668  0.10574765     0.28600
H520        H  0.70723069  0.60840329  0.89981532     0.32800
H521        H  0.85279353  0.60655248  0.92453271     0.35700
H522        H  0.68602084  0.58071092  0.10829381     0.28300
H523        H  0.75337291  0.38641238  0.07793515     0.41200
H524        H  0.72665637  0.38238134  0.96099736     0.31200
H525        H  0.66196375  0.42147053  0.97939609     0.38800
H526        H  0.81267103  0.61393746  0.00464548     0.30700
H527        H  0.81529772  0.47094876  0.88680303     0.30800
H528        H  0.74722192  0.60583106  0.89628706     0.31000
C529        C  0.53241725  0.51126332  0.00013168     0.18700
C530        C  0.50941011  0.48120427  0.01809924    -0.19400
C531        C  0.47391115  0.48621827  0.02411773    -0.11700
C532        C  0.46062165  0.52176954  0.01252787     0.20900
C533        C  0.48359496  0.55174286  0.99430083    -0.21000
C534        C  0.51916551  0.54672840  0.98827385    -0.11900
C535        C  0.42317796  0.52791831  0.01673447    -0.16000
C536        C  0.39846800  0.50619019  0.03996424    -0.29900
C537        C  0.56970409  0.50488678  0.99680550    -0.04100
C538        C  0.59538156  0.52814920  0.97666437    -0.40700
H539        H  0.51895601  0.45360136  0.02757396     0.12100
H540        H  0.45719747  0.46190390  0.03722594     0.11700
H541        H  0.47395699  0.57929681  0.98486029     0.11200
H542        H  0.53590616  0.57092989  0.97498171     0.11400
H543        H  0.41570360  0.55115336  0.99918128     0.14100
H544        H  0.40507503  0.48381502  0.05874644     0.12900
H545        H  0.57624014  0.47973311  0.01300852     0.10600
H546        H  0.59017289  0.55268062  0.95909525     0.12600
C547        C  0.96048901  0.49645022  0.01141976     0.18700
C548        C  0.98860321  0.50754967  0.98352796    -0.19400
C549        C  0.02217374  0.50379421  0.98793445    -0.11700
C550        C  0.02832437  0.48936002  0.02065760     0.20900
C551        C  0.00026403  0.47746240  0.04841411    -0.21000
C552        C  0.96659661  0.48121759  0.04400725    -0.11900
C553        C  0.06365787  0.48644172  0.02653653    -0.16000
C554        C  0.08949265  0.51035818  0.00811364    -0.29900
C555        C  0.92540597  0.50256012  0.00558598    -0.04100
C556        C  0.89723659  0.48366988  0.02566485    -0.40700
H557        H  0.98458318  0.51910209  0.95814113     0.12100
H558        H  0.04315872  0.51192968  0.96552876     0.11700
H559        H  0.00438284  0.46612982  0.07381123     0.11200
H560        H  0.94565037  0.47312541  0.06643588     0.11400
H561        H  0.06809613  0.46541604  0.04759020     0.14100
H562        H  0.08471698  0.53313077  0.98862511     0.12900
H563        H  0.92288643  0.52269712  0.98314270     0.10600
H564        H  0.89926847  0.46194472  0.04711222     0.12600
C565        C  0.35387493  0.29639403  0.00411314     0.18700
C566        C  0.34454168  0.26370826  0.98991686    -0.19400
C567        C  0.36066380  0.22803157  0.99456720    -0.11700
C568        C  0.38691605  0.22443614  0.01319508     0.20900
C569        C  0.39614073  0.25703239  0.02751954    -0.21000
C570        C  0.38018480  0.29273408  0.02270881    -0.11900
C571        C  0.40546090  0.18737568  0.01774376    -0.16000
C572        C  0.41024831  0.16180161  0.99386437    -0.29900
C573        C  0.33538341  0.33353981  0.99950174    -0.04100
C574        C  0.33283111  0.36044759  0.02201555    -0.40700
H575        H  0.32431771  0.26561686  0.97563881     0.12100
H576        H  0.35213695  0.20326678  0.98394930     0.11700
H577        H  0.41633060  0.25509566  0.04184084     0.11200
H578        H  0.38905649  0.31739434  0.03316468     0.11400
H579        H  0.41745804  0.18236376  0.03987924     0.14100
H580        H  0.40031173  0.16812761  0.97049380     0.12900
H581        H  0.32165504  0.33761805  0.97861491     0.10600
H582        H  0.34453808  0.35534260  0.04428922     0.12600
C583        C  0.61917147  0.80359221  0.00116666     0.18700
C584        C  0.62793283  0.78077645  0.02940097    -0.19400
C585        C  0.64334302  0.74456122  0.02496491    -0.11700
C586        C  0.65061586  0.73035394  0.99190640     0.20900
C587        C  0.64182681  0.75312296  0.96375214    -0.21000
C588        C  0.62624437  0.78914904  0.96821996    -0.11900
C589        C  0.66570957  0.69132036  0.98610129    -0.16000
C590        C  0.68357412  0.67243652  0.00752989    -0.29900
C591        C  0.60046469  0.84066099  0.00755612    -0.04100
C592        C  0.59716635  0.86786400  0.98148178    -0.40700
H593        H  0.62228592  0.79069990  0.05517122     0.12100
H594        H  0.64842158  0.72751306  0.04783340     0.11700
H595        H  0.64662762  0.74274631  0.93818977     0.11200
H596        H  0.61886921  0.80462476  0.94585158     0.11400
H597        H  0.66217782  0.67791600  0.96348509     0.14100
H598        H  0.68829711  0.68615127  0.02945577     0.12900
H599        H  0.58792845  0.84495095  0.03435082     0.10600
H600        H  0.61001095  0.86452804  0.95467077     0.12600
C601        C  0.78686870  0.00969140  0.98019124     0.18700
C602        C  0.76330651  0.98232541  0.00182218    -0.19400
C603        C  0.72792825  0.98701395  0.00594437    -0.11700
C604        C  0.71515212  0.01962551  0.98869422     0.20900
C605        C  0.73869248  0.04698718  0.96678652    -0.21000
C606        C  0.77422313  0.04223597  0.96259946    -0.11900
C607        C  0.67775656  0.02519469  0.99128254    -0.16000
C608        C  0.65231791  0.00513238  0.01525487    -0.29900
C609        C  0.82400271  0.00385064  0.97890947    -0.04100
C610        C  0.85028034  0.02319266  0.95569674    -0.40700
H611        H  0.77233514  0.95700959  0.01569188     0.12100
H612        H  0.71098751  0.96459614  0.02225796     0.11700
H613        H  0.72954664  0.07229140  0.95299478     0.11200
H614        H  0.79139395  0.06444780  0.94620751     0.11400
H615        H  0.67094561  0.04661834  0.97177139     0.14100
H616        H  0.65798046  0.98423521  0.03566340     0.12900
H617        H  0.82990438  0.98264929  0.99910005     0.10600
H618        H  0.84557696  0.04419166  0.93484127     0.12600
C619        C  0.28784261  0.99924777  0.98287546     0.18700
C620        C  0.26203343  0.99134592  0.01369695    -0.19400
C621        C  0.22748173  0.99792348  0.01360791    -0.11700
C622        C  0.21802327  0.01215113  0.98241515     0.20900
C623        C  0.24383022  0.01992964  0.95158103    -0.21000
C624        C  0.27836851  0.01329539  0.95165740    -0.11900
C625        C  0.18173359  0.01951273  0.98080280    -0.16000
C626        C  0.15449635  0.00158554  0.00368999    -0.29900
C627        C  0.32417732  0.99273877  0.98465301    -0.04100
C628        C  0.35121619  0.01089215  0.96166598    -0.40700
H629        H  0.26869053  0.98064498  0.03811283     0.12100
H630        H  0.20850433  0.99248133  0.03810845     0.11700
H631        H  0.23718863  0.03075044  0.92718959     0.11200
H632        H  0.29733040  0.01877417  0.92715378     0.11400
H633        H  0.17744690  0.03865026  0.95847486     0.14100
H634        H  0.15821986  0.98071754  0.02508922     0.12900
H635        H  0.32860587  0.97456592  0.00745509     0.10600
H636        H  0.34737623  0.03104165  0.93984377     0.12600
C637        C  0.84785231  0.28888761  0.96517342     0.18700
C638        C  0.84889789  0.26442245  0.99587938    -0.19400
C639        C  0.86876443  0.23093004  0.99423941    -0.11700
C640        C  0.88796805  0.22107466  0.96187510     0.20900
C641        C  0.88571203  0.24453790  0.93113606    -0.21000
C642        C  0.86586832  0.27813742  0.93277860    -0.11900
C643        C  0.90921890  0.18560288  0.95932965    -0.16000
C644        C  0.92338489  0.16998879  0.98543906    -0.29900
C645        C  0.82818907  0.32560587  0.96596609    -0.04100
C646        C  0.82179898  0.34603052  0.99379363    -0.40700
H647        H  0.83405100  0.27064590  0.02119662     0.12100
H648        H  0.86845158  0.21247545  0.01832085     0.11700
H649        H  0.89971575  0.23713795  0.90583048     0.11200
H650        H  0.86505333  0.29615164  0.90871335     0.11400
H651        H  0.91355019  0.17221737  0.93507140     0.14100
H652        H  0.92069584  0.18429561  0.00903531     0.12900
H653        H  0.82056929  0.33733085  0.94222027     0.10600
H654        H  0.83098665  0.33574025  0.01696082     0.12600
C655        C  0.14630462  0.72906709  0.00073714     0.18700
C656        C  0.12449444  0.73868234  0.97796452    -0.19400
C657        C  0.10911250  0.77509938  0.97665190    -0.11700
C658        C  0.11568930  0.80306310  0.99781535     0.20900
C659        C  0.13790515  0.79373394  0.02021785    -0.21000
C660        C  0.15332235  0.75727022  0.02152417    -0.11900
C661        C  0.09856021  0.84134437  0.99849495    -0.16000
C662        C  0.08610243  0.85834559  0.97174874    -0.29900
C663        C  0.16111092  0.68943323  0.00179689    -0.04100
C664        C  0.17301540  0.67241361  0.02892784    -0.40700
H665        H  0.11869668  0.71756886  0.96164741     0.12100
H666        H  0.09138035  0.78062851  0.95976420     0.11700
H667        H  0.14341327  0.81479635  0.03672732     0.11200
H668        H  0.17082587  0.75160687  0.03862734     0.11400
H669        H  0.09629483  0.85606226  0.02185488     0.14100
H670        H  0.08953764  0.84494935  0.94761407     0.12900
H671        H  0.16081771  0.67297864  0.97992894     0.10600
H672        H  0.17234744  0.68764898  0.05166574     0.12600
C673        C  0.72406630  0.53253975  0.78488643     0.18700
C674        C  0.69834753  0.54892691  0.76894657    -0.19400
C675        C  0.70039593  0.54734209  0.73304851    -0.11700
C676        C  0.72866122  0.52989392  0.71218218     0.20900
C677        C  0.75483646  0.51479362  0.72797805    -0.21000
C678        C  0.75260717  0.51598530  0.76373599    -0.11900
C679        C  0.73292061  0.52788432  0.67377592    -0.16000
C680        C  0.70700674  0.52935465  0.65688012    -0.29900
C681        C  0.72126333  0.53372146  0.82326206    -0.04100
C682        C  0.73418570  0.50544542  0.84282822    -0.40700
H683        H  0.67640704  0.56256433  0.78440703     0.12100
H684        H  0.68016504  0.56032773  0.72171696     0.11700
H685        H  0.77719448  0.50178476  0.71255203     0.11200
H686        H  0.77362489  0.50441679  0.77461607     0.11400
H687        H  0.75879906  0.52280701  0.65897004     0.14100
H688        H  0.68063632  0.53218671  0.67135509     0.12900
H689        H  0.70772127  0.55771358  0.83568278     0.10600
H690        H  0.74590178  0.48046960  0.83054897     0.12600
C691        C  0.78247505  0.48167542  0.20741977     0.18700
C692        C  0.77580148  0.44704732  0.23036247    -0.19400
C693        C  0.77626473  0.44678678  0.26573853    -0.11700
C694        C  0.78417147  0.48109385  0.27870642     0.20900
C695        C  0.79261796  0.51523618  0.25543788    -0.21000
C696        C  0.79151655  0.51569616  0.22019781    -0.11900
C697        C  0.78329285  0.48224326  0.31640186    -0.16000
C698        C  0.75844454  0.46370792  0.34184950    -0.29900
C699        C  0.77986252  0.48111181  0.17045887    -0.04100
C700        C  0.77105571  0.51243187  0.15103989    -0.40700
H701        H  0.76939641  0.42029495  0.22105548     0.12100
H702        H  0.77049298  0.41977953  0.28291858     0.11700
H703        H  0.79921751  0.54188885  0.26477395     0.11200
H704        H  0.79794219  0.54261886  0.20306021     0.11400
H705        H  0.80100023  0.50214009  0.32332581     0.14100
H706        H  0.73848924  0.44711871  0.33482073     0.12900
H707        H  0.78286362  0.45326485  0.15976136     0.10600
H708        H  0.76557074  0.53975352  0.16227822     0.12600
C709        C  0.22066319  0.48036655  0.81927424     0.18700
C710        C  0.24823389  0.48284499  0.78967886    -0.19400
C711        C  0.24234974  0.48855813  0.75584020    -0.11700
C712        C  0.20856592  0.49143252  0.75071292     0.20900
C713        C  0.18092577  0.48693197  0.78027068    -0.21000
C714        C  0.18683703  0.48179095  0.81418560    -0.11900
C715        C  0.20159539  0.49721287  0.71487691    -0.16000
C716        C  0.22367205  0.51681636  0.68740473    -0.29900
C717        C  0.22814844  0.47686452  0.85489223    -0.04100
C718        C  0.20825720  0.49313368  0.88186330    -0.40700
H719        H  0.27451021  0.48114358  0.79275314     0.12100
H720        H  0.26434540  0.49015735  0.73376683     0.11700
H721        H  0.15466558  0.48798422  0.77711768     0.11200
H722        H  0.16490538  0.47869539  0.83634750     0.11400
H723        H  0.17807304  0.48457513  0.71099949     0.14100
H724        H  0.24660562  0.53044034  0.69165124     0.12900
H725        H  0.25242098  0.46420696  0.85799369     0.10600
H726        H  0.18552937  0.50879871  0.87790848     0.12600
C727        C  0.26572133  0.48430607  0.23883077     0.18700
C728        C  0.25120951  0.45240914  0.26286903    -0.19400
C729        C  0.24992831  0.45238675  0.29864516    -0.11700
C730        C  0.26388157  0.48399764  0.31086055     0.20900
C731        C  0.27941024  0.51524369  0.28660456    -0.21000
C732        C  0.27998072  0.51566502  0.25101517    -0.11900
C733        C  0.26337821  0.48504252  0.34850024    -0.16000
C734        C  0.23732035  0.46989595  0.37469070    -0.29900
C735        C  0.26632556  0.48404370  0.20111579    -0.04100
C736        C  0.26058493  0.51636251  0.18100467    -0.40700
H737        H  0.24040600  0.42773579  0.25399088     0.12100
H738        H  0.23854809  0.42741806  0.31657792     0.11700
H739        H  0.29072207  0.53968901  0.29531254     0.11200
H740        H  0.29204914  0.54024300  0.23296366     0.11400
H741        H  0.28385291  0.50155764  0.35473236     0.14100
H742        H  0.21530389  0.45617701  0.36864195     0.12900
H743        H  0.26914038  0.45624111  0.19032700     0.10600
H744        H  0.25445786  0.54334085  0.19271858     0.12600
C745        C  0.51289113  0.51282654  0.52608409     0.18700
C746        C  0.49033022  0.53290542  0.55064756    -0.19400
C747        C  0.45519144  0.53482090  0.55106214    -0.11700
C748        C  0.44151510  0.51689254  0.52681192     0.20900
C749        C  0.46393699  0.49641342  0.50229271    -0.21000
C750        C  0.49914650  0.49433687  0.50195969    -0.11900
C751        C  0.40359211  0.51870576  0.52942333    -0.16000
C752        C  0.38791366  0.51160887  0.50375927    -0.29900
C753        C  0.55009215  0.51115879  0.52738594    -0.04100
C754        C  0.57525522  0.49938792  0.50176828    -0.40700
H755        H  0.49991347  0.54717976  0.56973214     0.12100
H756        H  0.43856666  0.55043966  0.57052217     0.11700
H757        H  0.45438548  0.48105225  0.48389689     0.11200
H758        H  0.51505827  0.47742713  0.48321453     0.11400
H759        H  0.38782101  0.52685948  0.55380920     0.14100
H760        H  0.40304962  0.50476018  0.47867986     0.12900
H761        H  0.55713569  0.52094804  0.55009796     0.10600
H762        H  0.56919125  0.49096753  0.47819798     0.12600
C763        C  0.01422381  0.49617579  0.52463672     0.18700
C764        C  0.00508025  0.49520857  0.49234753    -0.19400
C765        C  0.97073010  0.49871803  0.48965624    -0.11700
C766        C  0.94432316  0.50311956  0.51942339     0.20900
C767        C  0.95351904  0.50463821  0.55160383    -0.21000
C768        C  0.98789965  0.50106861  0.55431069    -0.11900
C769        C  0.90704351  0.50634083  0.51845402    -0.16000
C770        C  0.89346473  0.49723572  0.49185937    -0.29900
C771        C  0.05142247  0.49195688  0.52552409    -0.04100
C772        C  0.06526431  0.49488607  0.55349493    -0.40700
H773        H  0.02470471  0.49178466  0.46889296     0.12100
H774        H  0.96528264  0.49829253  0.46413113     0.11700
H775        H  0.93387253  0.50819555  0.57499339     0.11200
H776        H  0.99343860  0.50194376  0.57973491     0.11400
H777        H  0.88965257  0.51528844  0.54161105     0.14100
H778        H  0.90992943  0.48739393  0.46867555     0.12900
H779        H  0.06872891  0.48683972  0.50090295     0.10600
H780        H  0.04918802  0.50066551  0.57845808     0.12600
C781        C  0.52633541  0.98751575  0.77690268     0.18700
C782        C  0.53404087  0.95300548  0.76126556    -0.19400
C783        C  0.54185512  0.95365594  0.72491375    -0.11700
C784        C  0.54221508  0.98905158  0.70340533     0.20900
C785        C  0.53596695  0.02382138  0.71899188    -0.21000
C786        C  0.52786473  0.02312195  0.75545972    -0.11900
C787        C  0.54723918  0.99047796  0.66489651    -0.16000
C788        C  0.53641104  0.96119149  0.65002069    -0.29900
C789        C  0.51928327  0.98531466  0.81552009    -0.04100
C790        C  0.49996520  0.01094053  0.83458216    -0.40700
H791        H  0.53376691  0.92535147  0.77728601     0.12100
H792        H  0.54767505  0.92642613  0.71380851     0.11700
H793        H  0.53655305  0.05148557  0.70292219     0.11200
H794        H  0.52332715  0.05042282  0.76670723     0.11400
H795        H  0.55592690  0.01790186  0.64901040     0.14100
H796        H  0.52525937  0.93480660  0.66614087     0.12900
H797        H  0.53045381  0.96102984  0.82879888     0.10600
H798        H  0.48740028  0.03444500  0.82194025     0.12600
C799        C  0.52185575  0.99999250  0.20711303     0.18700
C800        C  0.51940399  0.96694382  0.23179861    -0.19400
C801        C  0.51728859  0.97086100  0.26720221    -0.11700
C802        C  0.51801754  0.00805373  0.27863697     0.20900
C803        C  0.52208387  0.04096330  0.25368033    -0.21000
C804        C  0.52389215  0.03707119  0.21838226    -0.11900
C805        C  0.51630388  0.01340194  0.31596963    -0.16000
C806        C  0.49986241  0.98798644  0.34296552    -0.29900
C807        C  0.52229868  0.99506597  0.16990243    -0.04100
C808        C  0.50956489  0.02210140  0.14915946    -0.40700
H809        H  0.51856642  0.93801471  0.22376502     0.12100
H810        H  0.51561789  0.94469898  0.28539556     0.11700
H811        H  0.52356231  0.06986915  0.26158004     0.11200
H812        H  0.52723404  0.06318159  0.19996029     0.11400
H813        H  0.52842223  0.03944175  0.32134703     0.14100
H814        H  0.48596610  0.96313713  0.33784529     0.12900
H815        H  0.53134018  0.96775499  0.16007579     0.10600
H816        H  0.49816776  0.04806538  0.15986839     0.12600
C817        C  0.38984069  0.77257959  0.52043170     0.18700
C818        C  0.36250024  0.76708088  0.50455285    -0.19400
C819        C  0.34289478  0.73244672  0.51246918    -0.11700
C820        C  0.35013375  0.70215897  0.53663236     0.20900
C821        C  0.37831239  0.70705895  0.55161702    -0.21000
C822        C  0.39789865  0.74191853  0.54378207    -0.11900
C823        C  0.32999406  0.66453643  0.54494672    -0.16000
C824        C  0.29750145  0.66168530  0.54094740    -0.29900
C825        C  0.40963513  0.81029672  0.51127964    -0.04100
C826        C  0.42628270  0.82520916  0.53303725    -0.40700
H827        H  0.35613354  0.78983201  0.48599222     0.12100
H828        H  0.32259416  0.72938237  0.49888870     0.11700
H829        H  0.38511933  0.68389325  0.56953002     0.11200
H830        H  0.41959448  0.74442821  0.55559730     0.11400
H831        H  0.34258762  0.63844983  0.55346360     0.14100
H832        H  0.28450747  0.68777829  0.53329910     0.12900
H833        H  0.40885741  0.82732677  0.48662165     0.10600
H834        H  0.42566150  0.80939905  0.55852758     0.12600
C835        C  0.65223386  0.27540583  0.46132613     0.18700
C836        C  0.66658847  0.23879082  0.46754045    -0.19400
C837        C  0.65078329  0.20464010  0.46220482    -0.11700
C838        C  0.61976571  0.20605584  0.45087760     0.20900
C839        C  0.60603850  0.24268351  0.44326641    -0.21000
C840        C  0.62188534  0.27701480  0.44864301    -0.11900
C841        C  0.60059648  0.16966431  0.44865593    -0.16000
C842        C  0.60054934  0.13793529  0.47177241    -0.29900
C843        C  0.66903812  0.31043998  0.47008539    -0.04100
C844        C  0.66241860  0.34775966  0.45987725    -0.40700
H845        H  0.69003091  0.23649910  0.47699947     0.12100
H846        H  0.66280930  0.17707666  0.46728768     0.11700
H847        H  0.58224881  0.24464782  0.43444131     0.11200
H848        H  0.60956030  0.30438778  0.44386857     0.11400
H849        H  0.58422283  0.17004944  0.43012712     0.14100
H850        H  0.61484127  0.13935941  0.49195371     0.12900
H851        H  0.68826726  0.30506404  0.48549857     0.10600
H852        H  0.64452048  0.35417247  0.44319950     0.12600
C853        C  0.99985030  0.03692530  0.76280689     0.18700
C854        C  0.98100293  0.05832535  0.74147220    -0.19400
C855        C  0.98859803  0.05601013  0.70524757    -0.11700
C856        C  0.01560069  0.03257073  0.68957574     0.20900
C857        C  0.03559097  0.01297689  0.71072556    -0.21000
C858        C  0.02778875  0.01497117  0.74687516    -0.11900
C859        C  0.02340991  0.02747366  0.65151594    -0.16000
C860        C  0.99896857  0.02939412  0.63294554    -0.29900
C861        C  0.99082985  0.03840243  0.80143808    -0.04100
C862        C  0.99488793  0.00720102  0.82367628    -0.40700
H863        H  0.95994153  0.07622751  0.75294472     0.12100
H864        H  0.97339316  0.07273810  0.68963681     0.11700
H865        H  0.05691066  0.99535378  0.69934392     0.11200
H866        H  0.04385759  0.99944899  0.76229035     0.11400
H867        H  0.04917550  0.01871964  0.63928872     0.14100
H868        H  0.97266013  0.03543278  0.64579648     0.12900
H869        H  0.98136612  0.06544173  0.81153358     0.10600
H870        H  0.00321839  0.98002348  0.81317370     0.12600
C871        C  0.01240290  0.96613920  0.26852106     0.18700
C872        C  0.99060309  0.99155649  0.25379773    -0.19400
C873        C  0.99394726  0.99752700  0.21749993    -0.11700
C874        C  0.01927319  0.97801810  0.19483417     0.20900
C875        C  0.04061443  0.95196497  0.20963675    -0.21000
C876        C  0.03736428  0.94612803  0.24598591    -0.11900
C877        C  0.02299384  0.98226536  0.15600958    -0.16000
C878        C  0.01036645  0.01219942  0.13793614    -0.29900
C879        C  0.00783333  0.96135899  0.30736497    -0.04100
C880        C  0.03250086  0.94893603  0.32415448    -0.40700
H881        H  0.97087035  0.00704272  0.27049616     0.12100
H882        H  0.97609775  0.01680375  0.20758342     0.11700
H883        H  0.05991280  0.93595443  0.19296842     0.11200
H884        H  0.05405892  0.92548066  0.25622277     0.11400
H885        H  0.03663834  0.95951463  0.14175546     0.14100
H886        H  0.99764828  0.03589854  0.15139187     0.12900
H887        H  0.98389130  0.97167583  0.32265076     0.10600
H888        H  0.05748680  0.94087912  0.30937745     0.12600
C889        C  0.80304108  0.97725307  0.47821101     0.18700
C890        C  0.78991909  0.95530771  0.45611511    -0.19400
C891        C  0.75443831  0.95111055  0.45972255    -0.11700
C892        C  0.73106940  0.96875843  0.48551701     0.20900
C893        C  0.74419522  0.99108652  0.50751922    -0.21000
C894        C  0.77969309  0.99533807  0.50386353    -0.11900
C895        C  0.69356291  0.96396322  0.48750627    -0.16000
C896        C  0.66828916  0.97940550  0.51071421    -0.29900
C897        C  0.84107860  0.98017918  0.47343049    -0.04100
C898        C  0.85706077  0.99518469  0.49577227    -0.40700
H899        H  0.80719855  0.94116726  0.43599763     0.12100
H900        H  0.74523022  0.93401653  0.44216273     0.11700
H901        H  0.72755219  0.00577956  0.52749533     0.11200
H902        H  0.78834329  0.01320689  0.52108315     0.11400
H903        H  0.68647896  0.94798238  0.46787416     0.14100
H904        H  0.67404064  0.99595909  0.53047398     0.12900
H905        H  0.85668959  0.96769787  0.45105183     0.10600
H906        H  0.84248981  0.00669936  0.51903573     0.12600
C907        C  0.30054348  0.96162557  0.48259760     0.18700
C908        C  0.28622958  0.94458276  0.45837111    -0.19400
C909        C  0.25073769  0.94625073  0.46031904    -0.11700
C910        C  0.22889539  0.96469273  0.48693498     0.20900
C911        C  0.24312131  0.97994699  0.51207943    -0.21000
C912        C  0.27847765  0.97856475  0.50995842    -0.11900
C913        C  0.19122893  0.96855145  0.48990879    -0.16000
C914        C  0.17605854  0.96727324  0.46296079    -0.29900
C915        C  0.33837981  0.96100381  0.47932985    -0.04100
C916        C  0.35502127  0.98989180  0.48934378    -0.40700
H917        H  0.30262725  0.93059615  0.43754358     0.12100
H918        H  0.24064035  0.93283072  0.44116199     0.11700
H919        H  0.22684320  0.99355962  0.53323980     0.11200
H920        H  0.28838196  0.99051852  0.53000467     0.11400
H921        H  0.17553570  0.97454101  0.51510256     0.14100
H922        H  0.19120394  0.96209367  0.43735689     0.12900
H923        H  0.35272458  0.93676898  0.46816703     0.10600
H924        H  0.34073136  0.01475507  0.49925221     0.12600
C925        C  0.89899204  0.77021796  0.48841715     0.18700
C926        C  0.89802057  0.73778233  0.51358930    -0.19400
C927        C  0.87526940  0.70627382  0.51616543    -0.11700
C928        C  0.85266577  0.70646179  0.49354664     0.20900
C929        C  0.85372185  0.73881390  0.46830038    -0.21000
C930        C  0.87646372  0.77029750  0.46571360    -0.11900
C931        C  0.82818776  0.67361938  0.49436505    -0.16000
C932        C  0.82227916  0.64177680  0.51833339    -0.29900
C933        C  0.92333223  0.80323363  0.48765943    -0.04100
C934        C  0.92758446  0.83608844  0.46489361    -0.40700
H935        H  0.91501146  0.73676228  0.53147027     0.12100
H936        H  0.87588550  0.68198540  0.53574530     0.11700
H937        H  0.83675981  0.73981802  0.45038847     0.11200
H938        H  0.87591416  0.79441861  0.44597216     0.11400
H939        H  0.81437857  0.67579495  0.47351719     0.14100
H940        H  0.83526553  0.63839608  0.53970351     0.12900
H941        H  0.93807164  0.80058931  0.50774891     0.10600
H942        H  0.91334017  0.84017180  0.44455627     0.12600
C943        C  0.11968805  0.20067578  0.49588641     0.18700
C944        C  0.12475310  0.23409434  0.47147349    -0.19400
C945        C  0.14096216  0.26749304  0.47771115    -0.11700
C946        C  0.15205989  0.26854986  0.50895755     0.20900
C947        C  0.14750519  0.23495243  0.53321925    -0.21000
C948        C  0.13126870  0.20143272  0.52696069    -0.11900
C949        C  0.16864716  0.30406709  0.51673760    -0.16000
C950        C  0.16228412  0.34031557  0.50345350    -0.29900
C951        C  0.10109913  0.16649292  0.48834925    -0.04100
C952        C  0.10248572  0.12996492  0.50388578    -0.40700
H953        H  0.11623770  0.23433203  0.44730294     0.12100
H954        H  0.14503711  0.29222067  0.45775337     0.11700
H955        H  0.15588669  0.23491924  0.55744474     0.11200
H956        H  0.12719482  0.17672444  0.54691985     0.11400
H957        H  0.18542806  0.30035936  0.53493802     0.14100
H958        H  0.14392994  0.34437667  0.48696905     0.12900
H959        H  0.08600667  0.17165455  0.46867127     0.10600
H960        H  0.11845645  0.12377302  0.52257575     0.12600
loop_ 
_geom_bond_atom_site_label_1 
_geom_bond_atom_site_label_2 
_geom_bond_distance 
_geom_bond_site_symmetry_2 
_ccdc_geom_bond_type 
Zr1           O2   2.442       .  S
Zr1           O3   2.449       .  S
Zr1           O4   2.441       .  S
Zr1           O7   2.421       .  S
Zr1           O9   2.376   1_655  S
Zr1          O10   2.380       .  S
Zr1          O11   2.409   1_665  S
Zr1          O12   2.412   1_565  S
O2           H58   0.991       .  S
O2           H66   0.990   1_565  S
O3           C23   1.286       .  A
O4           C25   1.285   1_655  A
O5          Zr15   2.429       .  S
O5           C24   1.283   1_545  A
O6          Zr14   2.439       .  S
O6           C25   1.284       .  A
O7           C24   1.283       .  A
O8          Zr16   2.417   1_655  S
O8           C23   1.282       .  A
O9          Zr14   2.394       .  S
O9          Zr16   2.382       .  S
O10         Zr15   2.388   1_565  S
O10         Zr16   2.373   1_655  S
O10          H45   0.966       .  S
O11         Zr14   2.396   1_545  S
O11         Zr31   2.401       .  S
O11          H48   0.964       .  S
O12         Zr15   2.392       .  S
O12         Zr31   2.406   1_655  S
Zr13         O38   2.444       .  S
Zr13         O32   2.423   1_565  S
Zr13         O40   2.455   1_565  S
Zr13         O28   2.447       .  S
Zr13         O19   2.400       .  S
Zr13         O20   2.404       .  S
Zr13         O21   2.383   1_565  S
Zr13         O22   2.386   1_565  S
Zr14         O33   2.437   1_565  S
Zr14         O26   2.436       .  S
Zr14         O27   2.423       .  S
Zr14         O20   2.403       .  S
Zr14         O21   2.394   1_565  S
Zr15         O17   2.438       .  S
Zr15         O39   2.436   1_545  S
Zr15         O41   2.424       .  S
Zr15         O19   2.396   1_645  S
Zr15         O22   2.386   1_655  S
Zr16         O42   2.435   1_455  S
Zr16         O43   2.436       .  S
Zr16         O18   2.437       .  S
Zr16         O19   2.397       .  S
Zr16         O20   2.387       .  S
O17          H54   0.990       .  S
O18          H49   0.990       .  S
O18          H63   0.990       .  S
O20          H46   0.965       .  S
O21         Zr31   2.372       .  S
O22         Zr31   2.372       .  S
O22          H47   0.967       .  S
C23         C934   1.484       .  S
C24         C898   1.476       .  S
C25         C880   1.484       .  S
O26          H62   0.990       .  S
O27          C29   1.283       .  A
O28          C29   1.289       .  A
C29         C914   1.478       .  S
O30         Zr31   2.440       .  S
O30          H59   0.990       .  S
Zr31         O34   2.439       .  S
Zr31         O35   2.438   1_455  S
Zr31         O36   2.442       .  S
O32          C37   1.282       .  A
O33          H50   0.991   1_545  S
O33          H65   0.990       .  S
O34          H51   0.990       .  S
O35          H55   0.990       .  S
O35          H64   0.990       .  S
O36          C37   1.287       .  A
C37         C952   1.480       .  S
O38          H57   0.990       .  S
O38          H61   0.990       .  S
O39          H53   0.991       .  S
O39          H60   0.990       .  S
O40          C44   1.289       .  A
O41          C44   1.282   1_655  A
O42          H52   0.990       .  S
O43          H56   0.990       .  S
C44         C860   1.482   1_455  S
Zr67         O68   2.441       .  S
Zr67         O69   2.427       .  S
Zr67         O70   2.434   1_545  S
Zr67         O73   2.407       .  S
Zr67         O75   2.376   1_545  S
Zr67         O76   2.383       .  S
Zr67         O77   2.396   1_545  S
Zr67         O78   2.401       .  S
O68         H124   0.990       .  S
O68         H132   0.990       .  S
O69          C89   1.282   1_545  A
O70          C91   1.285       .  A
O71         Zr81   2.474       .  S
O71          C90   1.292       .  A
O72         Zr80   2.418       .  S
O72          C91   1.281       .  A
O73          C90   1.280       .  A
O74         Zr82   2.424       .  S
O74          C89   1.283       .  A
O75         Zr80   2.388       .  S
O75         Zr82   2.374       .  S
O76         Zr81   2.390       .  S
O76         Zr82   2.373   1_545  S
O76         H111   0.963       .  S
O77         Zr80   2.394       .  S
O77         Zr97   2.395   1_565  S
O77         H114   0.963   1_565  S
O78         Zr81   2.393       .  S
O78         Zr97   2.389       .  S
Zr79        O104   2.441       .  S
Zr79         O98   2.445       .  S
Zr79        O106   2.431       .  S
Zr79         O94   2.460       .  S
Zr79         O85   2.410       .  S
Zr79         O86   2.409       .  S
Zr79         O87   2.374       .  S
Zr79         O88   2.393   1_565  S
Zr80         O99   2.435       .  S
Zr80         O92   2.434       .  S
Zr80         O93   2.414       .  S
Zr80         O86   2.398       .  S
Zr80         O87   2.390       .  S
Zr81         O83   2.435       .  S
Zr81        O105   2.438       .  S
Zr81        O107   2.447       .  S
Zr81         O85   2.401   1_545  S
Zr81         O88   2.403       .  S
Zr82        O108   2.435       .  S
Zr82        O109   2.435       .  S
Zr82         O84   2.435       .  S
Zr82         O85   2.393       .  S
Zr82         O86   2.401       .  S
O83         H120   0.990       .  S
O84         H115   0.990       .  S
O84         H129   0.990       .  S
O86         H112   0.965       .  S
O87         Zr97   2.381   1_565  S
O88         Zr97   2.382       .  S
O88         H113   0.967       .  S
C89         C896   1.475       .  S
C90         C842   1.481       .  S
C91         C788   1.471       .  S
O92         H128   0.989       .  S
O93          C95   1.280       .  A
O94          C95   1.288       .  A
C95         C826   1.482       .  S
O96         Zr97   2.439       .  S
O96         H125   0.990       .  S
Zr97        O100   2.437       .  S
Zr97        O101   2.440       .  S
Zr97        O102   2.409       .  S
O98         C103   1.286       .  A
O99         H116   0.990       .  S
O99         H131   0.990       .  S
O100        H117   0.990   1_545  S
O101        H121   0.990       .  S
O101        H130   0.990       .  S
O102        C103   1.278   1_545  A
C103        C916   1.473       .  S
O104        H123   0.990       .  S
O104        H127   0.990       .  S
O105        H119   0.990       .  S
O105        H126   0.990       .  S
O106        C110   1.284       .  A
O107        C110   1.288   1_545  A
O108        H118   0.990       .  S
O109        H122   0.990       .  S
C110        C806   1.483       .  S
Zr133       O134   2.441       .  S
Zr133       O135   2.427       .  S
Zr133       O136   2.447       .  S
Zr133       O139   2.422       .  S
Zr133       O141   2.378       .  S
Zr133       O142   2.385       .  S
Zr133       O143   2.398       .  S
Zr133       O144   2.401       .  S
O134        H190   0.990       .  S
O134        H198   0.990       .  S
O135        C155   1.282       .  A
O136        C157   1.286       .  A
O137       Zr147   2.466       .  S
O137        C156   1.291       .  A
O138       Zr146   2.427       .  S
O138        C157   1.285       .  A
O139        C156   1.284       .  A
O140       Zr148   2.439       .  S
O140        C155   1.285       .  A
O141       Zr146   2.397       .  S
O141       Zr148   2.378       .  S
O142       Zr147   2.399       .  S
O142       Zr148   2.373       .  S
O142        H177   0.966       .  S
O143       Zr146   2.403       .  S
O143       Zr163   2.397       .  S
O143        H180   0.964       .  S
O144       Zr147   2.395       .  S
O144       Zr163   2.387       .  S
Zr145       O170   2.442       .  S
Zr145       O164   2.452       .  S
Zr145       O172   2.420       .  S
Zr145       O160   2.438       .  S
Zr145       O151   2.410       .  S
Zr145       O152   2.408       .  S
Zr145       O153   2.373       .  S
Zr145       O154   2.389       .  S
Zr146       O165   2.435       .  S
Zr146       O158   2.433       .  S
Zr146       O159   2.444       .  S
Zr146       O152   2.394       .  S
Zr146       O153   2.391       .  S
Zr147       O149   2.434       .  S
Zr147       O171   2.438       .  S
Zr147       O173   2.462       .  S
Zr147       O151   2.393       .  S
Zr147       O154   2.404       .  S
Zr148       O174   2.436       .  S
Zr148       O175   2.436       .  S
Zr148       O150   2.436       .  S
Zr148       O151   2.397       .  S
Zr148       O152   2.404       .  S
O149        H186   0.990       .  S
O150        H181   0.991       .  S
O150        H195   0.990       .  S
O152        H178   0.964       .  S
O153       Zr163   2.381       .  S
O154       Zr163   2.381       .  S
O154        H179   0.966       .  S
C155        C950   1.479       .  S
C156        C772   1.492       .  S
C157        C734   1.481       .  S
O158        H194   0.990       .  S
O159        C161   1.285       .  A
O160        C161   1.284       .  A
C161        C752   1.487       .  S
O162       Zr163   2.436       .  S
O162        H191   0.990       .  S
Zr163       O166   2.435       .  S
Zr163       O167   2.438       .  S
Zr163       O168   2.413       .  S
O164        C169   1.287       .  A
O165        H182   0.990       .  S
O165        H197   0.990       .  S
O166        H183   0.989       .  S
O167        H187   0.990       .  S
O167        H196   0.989       .  S
O168        C169   1.279       .  A
C169        C824   1.479       .  S
O170        H189   0.991       .  S
O170        H193   0.991       .  S
O171        H185   0.990       .  S
O171        H192   0.990       .  S
O172        C176   1.282       .  A
O173        C176   1.291       .  A
O174        H184   0.990       .  S
O175        H188   0.990       .  S
C176        C716   1.483       .  S
Zr199       O200   2.438       .  S
Zr199       O201   2.432       .  S
Zr199       O202   2.428       .  S
Zr199       O205   2.419       .  S
Zr199       O207   2.380       .  S
Zr199       O208   2.380       .  S
Zr199       O209   2.401       .  S
Zr199       O210   2.402       .  S
O200        H256   0.990       .  S
O200        H264   0.991       .  S
O201        C221   1.283       .  A
O202        C223   1.283       .  A
O203       Zr213   2.457       .  S
O203        C222   1.290       .  A
O204       Zr212   2.448       .  S
O204        C223   1.288       .  A
O205        C222   1.283       .  A
O206       Zr214   2.443       .  S
O206        C221   1.286       .  A
O207       Zr212   2.396       .  S
O207       Zr214   2.374       .  S
O208       Zr213   2.393       .  S
O208       Zr214   2.373       .  S
O208        H243   0.964       .  S
O209       Zr212   2.399       .  S
O209       Zr229   2.395       .  S
O209        H246   0.963       .  S
O210       Zr213   2.388       .  S
O210       Zr229   2.396       .  S
Zr211       O236   2.443       .  S
Zr211       O230   2.446       .  S
Zr211       O238   2.442       .  S
Zr211       O226   2.439       .  S
Zr211       O217   2.410       .  S
Zr211       O218   2.409       .  S
Zr211       O219   2.378       .  S
Zr211       O220   2.385       .  S
Zr212       O231   2.436       .  S
Zr212       O224   2.434       .  S
Zr212       O225   2.453       .  S
Zr212       O218   2.397       .  S
Zr212       O219   2.385       .  S
Zr213       O215   2.435       .  S
Zr213       O237   2.436       .  S
Zr213       O239   2.449       .  S
Zr213       O217   2.398       .  S
Zr213       O220   2.393       .  S
Zr214       O240   2.435       .  S
Zr214       O241   2.436       .  S
Zr214       O216   2.436       .  S
Zr214       O217   2.405       .  S
Zr214       O218   2.402       .  S
O215        H252   0.990       .  S
O216        H247   0.990       .  S
O216        H261   0.990       .  S
O218        H244   0.967       .  S
O219       Zr229   2.372       .  S
O220       Zr229   2.380       .  S
O220        H245   0.966       .  S
C221        C844   1.487       .  S
C222        C754   1.483       .  S
C223        C698   1.477       .  S
O224        H260   0.990       .  S
O225        C227   1.289       .  A
O226        C227   1.287       .  A
C227        C770   1.490       .  S
O228       Zr229   2.439       .  S
O228        H257   0.991       .  S
Zr229       O232   2.438       .  S
Zr229       O233   2.441       .  S
Zr229       O234   2.423       .  S
O230        C235   1.287       .  A
O231        H248   0.990       .  S
O231        H263   0.989       .  S
O232        H249   0.990       .  S
O233        H253   0.990       .  S
O233        H262   0.990       .  S
O234        C235   1.283       .  A
C235        C932   1.485       .  S
O236        H255   0.990       .  S
O236        H259   0.990       .  S
O237        H251   0.990       .  S
O237        H258   0.990       .  S
O238        C242   1.288       .  A
O239        C242   1.288       .  A
O240        H250   0.990       .  S
O241        H254   0.990       .  S
C242        C680   1.491       .  S
Zr265       O266   2.440       .  S
Zr265       O267   2.432       .  S
Zr265       O268   2.461       .  S
Zr265       O271   2.428       .  S
Zr265       O273   2.384   1_545  S
Zr265       O274   2.392       .  S
Zr265       O275   2.403   1_655  S
Zr265       O276   2.410   1_655  S
O266        H322   0.990       .  S
O266        H330   0.991       .  S
O267        C287   1.283       .  A
O268        C289   1.289       .  A
O269       Zr279   2.434       .  S
O269        C288   1.285   1_554  A
O270       Zr278   2.417       .  S
O270        C289   1.281   1_465  A
O271        C288   1.285       .  A
O272       Zr280   2.422   1_556  S
O272        C287   1.283   1_565  A
O273       Zr278   2.390   1_655  S
O273       Zr280   2.378   1_556  S
O274       Zr279   2.391   1_556  S
O274       Zr280   2.373   1_546  S
O274        H309   0.967   1_556  S
O275       Zr278   2.397   1_545  S
O275       Zr295   2.393       .  S
O275        H312   0.960       .  S
O276       Zr279   2.397   1_456  S
O276       Zr295   2.392       .  S
Zr277       O302   2.446       .  S
Zr277       O296   2.430       .  S
Zr277       O304   2.438       .  S
Zr277       O292   2.435       .  S
Zr277       O283   2.400   1_455  S
Zr277       O284   2.407   1_454  S
Zr277       O285   2.376   1_554  S
Zr277       O286   2.384   1_565  S
Zr278       O297   2.437       .  S
Zr278       O290   2.436   1_455  S
Zr278       O291   2.416       .  S
Zr278       O284   2.392   1_455  S
Zr278       O285   2.383       .  S
Zr279       O281   2.435   1_655  S
Zr279       O303   2.437       .  S
Zr279       O305   2.443       .  S
Zr279       O283   2.386   1_545  S
Zr279       O286   2.385   1_655  S
Zr280       O306   2.437       .  S
Zr280       O307   2.435       .  S
Zr280       O282   2.436   1_554  S
Zr280       O283   2.395       .  S
Zr280       O284   2.396   1_554  S
O281        H318   0.990   1_455  S
O282        H313   0.990   1_556  S
O282        H327   0.990       .  S
O284        H310   0.965       .  S
O285       Zr295   2.372   1_565  S
O286       Zr295   2.380   1_554  S
O286        H311   0.964       .  S
C287        C610   1.480       .  S
C288        C644   1.476       .  S
C289        C862   1.478       .  S
O290        H326   0.990       .  S
O291        C293   1.281       .  A
O292        C293   1.285   1_554  A
C293        C662   1.473       .  S
O294       Zr295   2.439       .  S
O294        H323   0.990       .  S
Zr295       O298   2.437       .  S
Zr295       O299   2.437       .  S
Zr295       O300   2.420       .  S
O296        C301   1.283   1_564  A
O297        H314   0.990       .  S
O297        H329   0.990       .  S
O298        H315   0.990       .  S
O299        H319   0.990       .  S
O299        H328   0.990       .  S
O300        C301   1.283       .  A
C301        C626   1.476   1_556  S
O302        H321   0.991       .  S
O302        H325   0.989       .  S
O303        H317   0.990       .  S
O303        H324   0.990       .  S
O304        C308   1.286   1_565  A
O305        C308   1.286   1_655  A
O306        H316   0.990   1_565  S
O307        H320   0.990       .  S
C308        C878   1.486       .  S
Zr331       O332   2.439       .  S
Zr331       O333   2.423       .  S
Zr331       O334   2.441       .  S
Zr331       O337   2.410       .  S
Zr331       O339   2.377   1_545  S
Zr331       O340   2.383   1_556  S
Zr331       O341   2.392       .  S
Zr331       O342   2.405       .  S
O332        H388   0.990       .  S
O332        H396   0.990       .  S
O333        C353   1.282       .  A
O334        C355   1.284       .  A
O335       Zr345   2.456       .  S
O335        C354   1.290   1_554  A
O336       Zr344   2.416       .  S
O336        C355   1.282   1_565  A
O337        C354   1.280       .  A
O338       Zr346   2.423   1_556  S
O338        C353   1.283   1_565  A
O339       Zr344   2.383       .  S
O339       Zr346   2.378   1_556  S
O340       Zr345   2.383       .  S
O340       Zr346   2.372   1_545  S
O340        H375   0.967       .  S
O341       Zr344   2.395   1_545  S
O341       Zr361   2.389       .  S
O341        H378   0.964       .  S
O342       Zr345   2.392   1_556  S
O342       Zr361   2.395       .  S
Zr343       O368   2.441       .  S
Zr343       O362   2.435       .  S
Zr343       O370   2.451       .  S
Zr343       O358   2.454       .  S
Zr343       O349   2.409       .  S
Zr343       O350   2.406       .  S
Zr343       O351   2.376   1_554  S
Zr343       O352   2.391   1_565  S
Zr344       O363   2.439       .  S
Zr344       O356   2.436       .  S
Zr344       O357   2.411       .  S
Zr344       O350   2.393   1_556  S
Zr344       O351   2.382       .  S
Zr345       O347   2.433       .  S
Zr345       O369   2.440       .  S
Zr345       O371   2.434       .  S
Zr345       O349   2.401   1_545  S
Zr345       O352   2.393       .  S
Zr346       O372   2.434       .  S
Zr346       O373   2.435       .  S
Zr346       O348   2.439   1_554  S
Zr346       O349   2.399       .  S
Zr346       O350   2.395       .  S
O347        H384   0.990       .  S
O348        H379   0.991       .  S
O348        H393   0.990       .  S
O350        H376   0.964       .  S
O351       Zr361   2.366   1_565  S
O352       Zr361   2.373   1_554  S
O352        H377   0.964       .  S
C353        C628   1.473       .  S
C354        C572   1.477       .  S
C355        C790   1.478       .  S
O356        H392   0.990       .  S
O357        C359   1.281       .  A
O358        C359   1.289   1_554  A
C359        C592   1.474       .  S
O360       Zr361   2.437       .  S
O360        H389   0.991       .  S
Zr361       O364   2.438       .  S
Zr361       O365   2.441       .  S
Zr361       O366   2.411       .  S
O362        C367   1.284   1_565  A
O363        H380   0.990       .  S
O363        H395   0.990       .  S
O364        H381   0.990       .  S
O365        H385   0.990   1_556  S
O365        H394   0.990   1_556  S
O366        C367   1.280   1_556  A
C367        C608   1.476       .  S
O368        H387   0.990       .  S
O368        H391   0.991       .  S
O369        H383   0.990       .  S
O369        H390   0.990       .  S
O370        C374   1.289   1_565  A
O371        C374   1.285       .  A
O372        H382   0.990       .  S
O373        H386   0.990       .  S
C374        C808   1.482       .  S
Zr397       O398   2.440       .  S
Zr397       O399   2.415       .  S
Zr397       O400   2.437       .  S
Zr397       O403   2.439   1_556  S
Zr397       O405   2.381       .  S
Zr397       O406   2.385   1_556  S
Zr397       O407   2.402       .  S
Zr397       O408   2.393   1_556  S
O398        H454   0.990       .  S
O398        H462   0.991       .  S
O399        C419   1.280   1_556  A
O400        C421   1.285       .  A
O401       Zr411   2.423       .  S
O401        C420   1.283       .  A
O402       Zr410   2.454       .  S
O402        C421   1.289       .  A
O403        C420   1.288       .  A
O404       Zr412   2.431       .  S
O404        C419   1.284       .  A
O405       Zr410   2.392       .  S
O405       Zr412   2.374   1_556  S
O406       Zr411   2.392       .  S
O406       Zr412   2.380       .  S
O406        H441   0.965       .  S
O407       Zr410   2.403       .  S
O407       Zr427   2.402       .  S
O407        H444   0.968       .  S
O408       Zr411   2.389       .  S
O408       Zr427   2.381   1_554  S
Zr409       O434   2.444       .  S
Zr409       O428   2.431       .  S
Zr409       O436   2.435       .  S
Zr409       O424   2.405       .  S
Zr409       O415   2.394       .  S
Zr409       O416   2.407       .  S
Zr409       O417   2.380       .  S
Zr409       O418   2.379       .  S
Zr410       O429   2.436       .  S
Zr410       O422   2.435       .  S
Zr410       O423   2.454       .  S
Zr410       O416   2.401   1_556  S
Zr410       O417   2.385   1_556  S
Zr411       O413   2.435       .  S
Zr411       O435   2.435       .  S
Zr411       O437   2.432       .  S
Zr411       O415   2.388       .  S
Zr411       O418   2.386       .  S
Zr412       O438   2.435       .  S
Zr412       O439   2.435       .  S
Zr412       O414   2.437       .  S
Zr412       O415   2.397       .  S
Zr412       O416   2.399       .  S
O413        H450   0.990       .  S
O414        H445   0.991       .  S
O414        H459   0.990       .  S
O416        H442   0.967       .  S
O417       Zr427   2.373   1_554  S
O418       Zr427   2.379   1_554  S
O418        H443   0.970       .  S
C419        C554   1.470       .  S
C420        C664   1.477       .  S
C421        C718   1.486       .  S
O422        H458   0.990       .  S
O423        C425   1.289   1_556  A
O424        C425   1.279       .  A
C425        C574   1.473       .  S
O426       Zr427   2.439       .  S
O426        H455   0.990       .  S
Zr427       O430   2.436       .  S
Zr427       O431   2.440   1_556  S
Zr427       O432   2.415   1_556  S
O428        C433   1.283       .  A
O429        H446   0.990       .  S
O429        H461   0.990       .  S
O430        H447   0.990       .  S
O431        H451   0.990       .  S
O431        H460   0.990       .  S
O432        C433   1.282       .  A
C433        C536   1.475       .  S
O434        H453   0.990       .  S
O434        H457   0.991       .  S
O435        H449   0.990       .  S
O435        H456   0.990       .  S
O436        C440   1.285       .  A
O437        C440   1.283       .  A
O438        H448   0.990       .  S
O439        H452   0.990       .  S
C440        C736   1.477       .  S
Zr463       O464   2.439       .  S
Zr463       O465   2.437       .  S
Zr463       O466   2.464       .  S
Zr463       O469   2.460       .  S
Zr463       O471   2.391       .  S
Zr463       O472   2.388   1_556  S
Zr463       O473   2.411       .  S
Zr463       O474   2.405       .  S
O464        H520   0.990       .  S
O464        H528   0.991       .  S
O465        C485   1.284       .  A
O466        C487   1.290       .  A
O467       Zr477   2.401       .  S
O467        C486   1.278       .  A
O468       Zr476   2.438       .  S
O468        C487   1.286       .  A
O469        C486   1.291   1_556  A
O470       Zr478   2.404       .  S
O470        C485   1.280   1_554  A
O471       Zr476   2.394       .  S
O471       Zr478   2.378   1_556  S
O472       Zr477   2.387       .  S
O472       Zr478   2.376       .  S
O472        H507   0.968       .  S
O473       Zr476   2.402       .  S
O473       Zr493   2.394       .  S
O473        H510   0.963       .  S
O474       Zr477   2.397   1_556  S
O474       Zr493   2.394       .  S
Zr475       O500   2.441       .  S
Zr475       O494   2.410       .  S
Zr475       O502   2.441       .  S
Zr475       O490   2.419       .  S
Zr475       O481   2.391       .  S
Zr475       O482   2.402       .  S
Zr475       O483   2.384   1_554  S
Zr475       O484   2.376       .  S
Zr476       O495   2.437       .  S
Zr476       O488   2.436       .  S
Zr476       O489   2.444       .  S
Zr476       O482   2.395   1_556  S
Zr476       O483   2.383       .  S
Zr477       O479   2.434       .  S
Zr477       O501   2.436       .  S
Zr477       O503   2.431       .  S
Zr477       O481   2.385       .  S
Zr477       O484   2.375       .  S
Zr478       O504   2.436       .  S
Zr478       O505   2.435       .  S
Zr478       O480   2.438       .  S
Zr478       O481   2.397       .  S
Zr478       O482   2.386       .  S
O479        H516   0.990       .  S
O480        H511   0.991       .  S
O480        H525   0.990   1_554  S
O482        H508   0.967       .  S
O483       Zr493   2.372       .  S
O484       Zr493   2.373   1_554  S
O484        H509   0.966       .  S
C485        C538   1.477       .  S
C486        C590   1.475       .  S
C487        C682   1.488       .  S
O488        H524   0.990       .  S
O489        C491   1.288       .  A
O490        C491   1.282   1_554  A
C491        C646   1.475       .  S
O492       Zr493   2.440       .  S
O492        H521   0.991       .  S
Zr493       O496   2.437       .  S
Zr493       O497   2.439       .  S
Zr493       O498   2.428       .  S
O494        C499   1.280       .  A
O495        H512   0.990       .  S
O495        H527   0.990       .  S
O496        H513   0.990       .  S
O497        H517   0.990   1_556  S
O497        H526   0.990   1_556  S
O498        C499   1.285   1_556  A
C499        C556   1.470       .  S
O500        H519   0.990       .  S
O500        H523   0.990       .  S
O501        H515   0.990       .  S
O501        H522   0.990       .  S
O502        C506   1.286       .  A
O503        C506   1.284       .  A
O504        H514   0.990       .  S
O505        H518   0.990       .  S
C506        C700   1.481       .  S
C529        C537   1.480   1_554  S
C529        C530   1.404       .  A
C529        C534   1.406   1_554  A
C530        C531   1.394       .  A
C530        H539   1.084       .  S
C531        C532   1.405       .  A
C531        H540   1.081       .  S
C532        C535   1.481       .  S
C532        C533   1.404   1_554  A
C533        C534   1.397       .  A
C533        H541   1.083       .  S
C534        H542   1.080       .  S
C535        H543   1.087   1_554  S
C535        C536   1.348       .  D
C536        H544   1.085       .  S
C537        H545   1.087   1_556  S
C537        C538   1.349       .  D
C538        H546   1.084       .  S
C547        C555   1.480       .  S
C547        C548   1.400   1_554  A
C547        C552   1.409       .  A
C548        C549   1.393   1_655  A
C548        H557   1.084       .  S
C549        C550   1.407   1_556  A
C549        H558   1.081       .  S
C550        C553   1.482       .  S
C550        C551   1.402       .  A
C551        C552   1.397   1_455  A
C551        H559   1.083       .  S
C552        H560   1.081       .  S
C553        H561   1.087       .  S
C553        C554   1.344       .  D
C554        H562   1.085   1_554  S
C555        H563   1.087   1_554  S
C555        C556   1.342       .  D
C556        H564   1.084       .  S
C565        C573   1.490   1_554  S
C565        C566   1.402   1_554  A
C565        C570   1.411       .  A
C566        C567   1.399       .  A
C566        H575   1.083       .  S
C567        C568   1.409   1_556  A
C567        H576   1.082       .  S
C568        C571   1.488       .  S
C568        C569   1.401       .  A
C569        C570   1.398       .  A
C569        H577   1.083       .  S
C570        H578   1.081       .  S
C571        H579   1.087       .  S
C571        C572   1.343   1_554  D
C572        H580   1.086       .  S
C573        H581   1.087       .  S
C573        C574   1.343   1_556  D
C574        H582   1.085       .  S
C583        C591   1.493       .  S
C583        C584   1.402       .  A
C583        C588   1.412   1_554  A
C584        C585   1.400       .  A
C584        H593   1.084       .  S
C585        C586   1.412   1_554  A
C585        H594   1.081       .  S
C586        C589   1.491       .  S
C586        C587   1.400       .  A
C587        C588   1.397       .  A
C587        H595   1.083       .  S
C588        H596   1.079       .  S
C589        H597   1.087       .  S
C589        C590   1.341   1_556  D
C590        H598   1.084       .  S
C591        H599   1.087       .  S
C591        C592   1.344   1_554  D
C592        H600   1.083       .  S
C601        C609   1.484       .  S
C601        C602   1.403   1_546  A
C601        C606   1.407       .  A
C602        C603   1.394       .  A
C602        H611   1.083       .  S
C603        C604   1.405   1_564  A
C603        H612   1.080       .  S
C604        C607   1.485       .  S
C604        C605   1.406       .  A
C605        C606   1.400       .  A
C605        H613   1.084       .  S
C606        H614   1.081       .  S
C607        H615   1.087       .  S
C607        C608   1.352   1_556  D
C608        H616   1.083   1_545  S
C609        H617   1.087   1_545  S
C609        C610   1.348       .  D
C610        H618   1.084       .  S
C619        C627   1.482       .  S
C619        C620   1.403   1_556  A
C619        C624   1.406   1_565  A
C620        C621   1.397       .  A
C620        H629   1.084       .  S
C621        C622   1.406   1_564  A
C621        H630   1.081       .  S
C622        C625   1.483       .  S
C622        C623   1.403       .  A
C623        C624   1.396       .  A
C623        H631   1.083       .  S
C624        H632   1.081       .  S
C625        H633   1.087       .  S
C625        C626   1.346   1_556  D
C626        H634   1.085   1_545  S
C627        H635   1.087   1_556  S
C627        C628   1.346   1_565  D
C628        H636   1.085       .  S
C637        C645   1.486       .  S
C637        C638   1.407       .  A
C637        C642   1.403       .  A
C638        C639   1.396       .  A
C638        H647   1.082   1_556  S
C639        C640   1.406       .  A
C639        H648   1.082   1_556  S
C640        C643   1.484       .  S
C640        C641   1.403       .  A
C641        C642   1.399       .  A
C641        H649   1.083       .  S
C642        H650   1.083       .  S
C643        H651   1.087       .  S
C643        C644   1.347       .  D
C644        H652   1.086   1_556  S
C645        H653   1.087       .  S
C645        C646   1.345       .  D
C646        H654   1.085   1_556  S
C655        C663   1.487       .  S
C655        C656   1.402   1_554  A
C655        C660   1.409       .  A
C656        C657   1.396       .  A
C656        H665   1.083       .  S
C657        C658   1.407       .  A
C657        H666   1.081       .  S
C658        C661   1.484       .  S
C658        C659   1.402   1_556  A
C659        C660   1.398       .  A
C659        H667   1.084       .  S
C660        H668   1.081       .  S
C661        H669   1.087   1_556  S
C661        C662   1.344       .  D
C662        H670   1.085       .  S
C663        H671   1.087   1_554  S
C663        C664   1.345       .  D
C664        H672   1.085       .  S
C673        C681   1.499       .  S
C673        C674   1.407       .  A
C673        C678   1.407       .  A
C674        C675   1.408       .  A
C674        H683   1.083       .  S
C675        C676   1.410       .  A
C675        H684   1.082       .  S
C676        C679   1.496       .  S
C676        C677   1.404       .  A
C677        C678   1.399       .  A
C677        H685   1.083       .  S
C678        H686   1.082       .  S
C679        H687   1.087       .  S
C679        C680   1.351       .  D
C680        H688   1.085       .  S
C681        H689   1.086       .  S
C681        C682   1.351       .  D
C682        H690   1.086       .  S
C691        C699   1.489       .  S
C691        C692   1.404       .  A
C691        C696   1.408       .  A
C692        C693   1.400       .  A
C692        H701   1.083       .  S
C693        C694   1.406       .  A
C693        H702   1.083       .  S
C694        C697   1.486       .  S
C694        C695   1.403       .  A
C695        C696   1.401       .  A
C695        H703   1.083       .  S
C696        H704   1.082       .  S
C697        H705   1.087       .  S
C697        C698   1.345       .  D
C698        H706   1.087       .  S
C699        H707   1.087       .  S
C699        C700   1.347       .  D
C700        H708   1.086       .  S
C709        C717   1.496       .  S
C709        C710   1.404       .  A
C709        C714   1.409       .  A
C710        C711   1.402       .  A
C710        H719   1.083       .  S
C711        C712   1.410       .  A
C711        H720   1.082       .  S
C712        C715   1.496       .  S
C712        C713   1.404       .  A
C713        C714   1.405       .  A
C713        H721   1.083       .  S
C714        H722   1.082       .  S
C715        H723   1.086       .  S
C715        C716   1.347       .  D
C716        H724   1.086       .  S
C717        H725   1.087       .  S
C717        C718   1.348       .  D
C718        H726   1.086       .  S
C727        C735   1.485       .  S
C727        C728   1.404       .  A
C727        C732   1.405       .  A
C728        C729   1.402       .  A
C728        H737   1.083       .  S
C729        C730   1.407       .  A
C729        H738   1.082       .  S
C730        C733   1.486       .  S
C730        C731   1.404       .  A
C731        C732   1.399       .  A
C731        H739   1.083       .  S
C732        H740   1.083       .  S
C733        H741   1.087       .  S
C733        C734   1.348       .  D
C734        H742   1.086       .  S
C735        H743   1.087       .  S
C735        C736   1.346       .  D
C736        H744   1.087       .  S
C745        C753   1.498       .  S
C745        C746   1.404       .  A
C745        C750   1.412       .  A
C746        C747   1.400       .  A
C746        H755   1.083       .  S
C747        C748   1.405       .  A
C747        H756   1.083       .  S
C748        C751   1.494       .  S
C748        C749   1.408       .  A
C749        C750   1.403       .  A
C749        H757   1.081       .  S
C750        H758   1.080       .  S
C751        H759   1.087       .  S
C751        C752   1.352       .  D
C752        H760   1.084       .  S
C753        H761   1.087       .  S
C753        C754   1.347       .  D
C754        H762   1.083       .  S
C763        C771   1.499       .  S
C763        C764   1.408       .  A
C763        C768   1.407   1_455  A
C764        C765   1.402   1_455  A
C764        H773   1.084       .  S
C765        C766   1.408       .  A
C765        H774   1.080       .  S
C766        C769   1.500       .  S
C766        C767   1.408       .  A
C767        C768   1.404       .  A
C767        H775   1.083       .  S
C768        H776   1.080       .  S
C769        H777   1.087       .  S
C769        C770   1.353       .  D
C770        H778   1.084       .  S
C771        H779   1.087       .  S
C771        C772   1.357       .  D
C772        H780   1.083       .  S
C781        C789   1.479       .  S
C781        C782   1.402       .  A
C781        C786   1.406   1_565  A
C782        C783   1.395       .  A
C782        H791   1.084       .  S
C783        C784   1.406       .  A
C783        H792   1.082       .  S
C784        C787   1.483       .  S
C784        C785   1.403   1_565  A
C785        C786   1.399       .  A
C785        H793   1.083       .  S
C786        H794   1.082       .  S
C787        H795   1.087   1_565  S
C787        C788   1.344       .  D
C788        H796   1.086       .  S
C789        H797   1.087       .  S
C789        C790   1.347   1_565  D
C790        H798   1.086       .  S
C799        C807   1.494       .  S
C799        C800   1.404       .  A
C799        C804   1.409   1_565  A
C800        C801   1.402       .  A
C800        H809   1.083       .  S
C801        C802   1.409   1_565  A
C801        H810   1.082       .  S
C802        C805   1.492       .  S
C802        C803   1.403       .  A
C803        C804   1.400       .  A
C803        H811   1.083       .  S
C804        H812   1.082       .  S
C805        H813   1.087       .  S
C805        C806   1.347   1_545  D
C806        H814   1.086       .  S
C807        H815   1.087       .  S
C807        C808   1.348   1_565  D
C808        H816   1.086       .  S
C817        C825   1.492       .  S
C817        C818   1.401       .  A
C817        C822   1.410       .  A
C818        C819   1.398       .  A
C818        H827   1.083       .  S
C819        C820   1.410       .  A
C819        H828   1.081       .  S
C820        C823   1.495       .  S
C820        C821   1.405       .  A
C821        C822   1.404       .  A
C821        H829   1.083       .  S
C822        H830   1.082       .  S
C823        H831   1.087       .  S
C823        C824   1.347       .  D
C824        H832   1.085       .  S
C825        H833   1.087       .  S
C825        C826   1.345       .  D
C826        H834   1.086       .  S
C835        C843   1.497       .  S
C835        C836   1.404       .  A
C835        C840   1.411       .  A
C836        C837   1.398       .  A
C836        H845   1.083       .  S
C837        C838   1.408       .  A
C837        H846   1.082       .  S
C838        C841   1.495       .  S
C838        C839   1.404       .  A
C839        C840   1.405       .  A
C839        H847   1.083       .  S
C840        H848   1.080       .  S
C841        H849   1.086       .  S
C841        C842   1.345       .  D
C842        H850   1.087       .  S
C843        H851   1.087       .  S
C843        C844   1.349       .  D
C844        H852   1.084       .  S
C853        C861   1.491       .  S
C853        C854   1.403       .  A
C853        C858   1.409   1_655  A
C854        C855   1.403       .  A
C854        H863   1.083       .  S
C855        C856   1.411   1_655  A
C855        H864   1.082       .  S
C856        C859   1.493       .  S
C856        C857   1.402       .  A
C857        C858   1.399       .  A
C857        H865   1.083   1_545  S
C858        H866   1.082   1_545  S
C859        H867   1.087       .  S
C859        C860   1.346   1_455  D
C860        H868   1.086       .  S
C861        H869   1.087       .  S
C861        C862   1.346       .  D
C862        H870   1.087   1_645  S
C871        C879   1.493       .  S
C871        C872   1.405   1_455  A
C871        C876   1.407       .  A
C872        C873   1.400       .  A
C872        H881   1.084   1_565  S
C873        C874   1.409   1_655  A
C873        H882   1.081   1_565  S
C874        C877   1.496       .  S
C874        C875   1.406       .  A
C875        C876   1.403       .  A
C875        H883   1.083       .  S
C876        H884   1.081       .  S
C877        H885   1.087       .  S
C877        C878   1.351   1_565  D
C878        H886   1.084   1_455  S
C879        H887   1.087   1_455  S
C879        C880   1.351       .  D
C880        H888   1.085       .  S
C889        C897   1.488       .  S
C889        C890   1.404       .  A
C889        C894   1.408       .  A
C890        C891   1.397       .  A
C890        H899   1.084       .  S
C891        C892   1.404       .  A
C891        H900   1.083       .  S
C892        C895   1.490       .  S
C892        C893   1.409       .  A
C893        C894   1.397       .  A
C893        H901   1.079   1_565  S
C894        H902   1.079   1_565  S
C895        H903   1.087       .  S
C895        C896   1.348       .  D
C896        H904   1.082       .  S
C897        H905   1.087       .  S
C897        C898   1.348       .  D
C898        H906   1.083   1_565  S
C907        C915   1.486       .  S
C907        C908   1.403       .  A
C907        C912   1.407       .  A
C908        C909   1.402       .  A
C908        H917   1.083       .  S
C909        C910   1.410       .  A
C909        H918   1.081       .  S
C910        C913   1.487       .  S
C910        C911   1.401       .  A
C911        C912   1.395       .  A
C911        H919   1.083       .  S
C912        H920   1.082       .  S
C913        H921   1.087       .  S
C913        C914   1.344       .  D
C914        H922   1.085       .  S
C915        H923   1.087       .  S
C915        C916   1.344       .  D
C916        H924   1.086   1_565  S
C925        C933   1.495       .  S
C925        C926   1.407       .  A
C925        C930   1.408       .  A
C926        C927   1.401       .  A
C926        H935   1.083       .  S
C927        C928   1.407       .  A
C927        H936   1.080       .  S
C928        C931   1.493       .  S
C928        C929   1.406       .  A
C929        C930   1.400       .  A
C929        H937   1.084       .  S
C930        H938   1.079       .  S
C931        H939   1.087       .  S
C931        C932   1.352       .  D
C932        H940   1.083       .  S
C933        H941   1.087       .  S
C933        C934   1.352       .  D
C934        H942   1.082       .  S
C943        C951   1.490       .  S
C943        C944   1.402       .  A
C943        C948   1.410       .  A
C944        C945   1.397       .  A
C944        H953   1.083       .  S
C945        C946   1.408       .  A
C945        H954   1.081       .  S
C946        C949   1.490       .  S
C946        C947   1.404       .  A
C947        C948   1.402       .  A
C947        H955   1.083       .  S
C948        H956   1.081       .  S
C949        H957   1.087       .  S
C949        C950   1.348       .  D
C950        H958   1.085       .  S
C951        H959   1.087       .  S
C951        C952   1.346       .  D
C952        H960   1.085       .  S
