geometry optimzed in LAMMPS
_audit_creation_date              2020-12-01 
_audit_creation_method            'lammps2cif' 
_symmetry_space_group_name_H-M    'P1' 
_symmetry_Int_Tables_number       1 
_symmetry_cell_setting            triclinic 
loop_ 
_symmetry_equiv_pos_as_xyz 
  x,y,z 
_cell_length_a                    36.9653925 
_cell_length_b                    37.116660328542665 
_cell_length_c                    34.1436993111217 
_cell_angle_alpha                 89.9542000758835 
_cell_angle_beta                  89.91063083280278 
_cell_angle_gamma                 121.28296305681407 
loop_ 
_atom_site_label 
_atom_site_type_symbol 
_atom_site_fract_x 
_atom_site_fract_y 
_atom_site_fract_z 
_atom_site_charge 
C1          C  0.34316643  0.67271040  0.21063996     0.46600
H2          H  0.34356397  0.67667715  0.17834096    -0.02400
C3          C  0.34187497  0.66372438  0.28629438     0.46700
H4          H  0.34135784  0.65994048  0.31862715    -0.02400
C5          C  0.30397490  0.63253686  0.22565486    -0.16100
C6          C  0.38081606  0.67066635  0.22634820    -0.15800
C7          C  0.34390815  0.70855796  0.23345224    -0.16200
C8          C  0.30330719  0.62778667  0.26553333    -0.16200
C9          C  0.38023324  0.66620063  0.26630207    -0.15800
C10         C  0.34292034  0.70369599  0.27330545    -0.16100
C11         C  0.66058084  0.32625163  0.21070715     0.46600
H12         H  0.66391341  0.32929019  0.17832851    -0.02400
C13         C  0.65288957  0.32013300  0.28660587     0.46700
H14         H  0.64989772  0.31777045  0.31901448    -0.02400
C15         C  0.62204887  0.28503809  0.22488789    -0.16100
C16         C  0.69850741  0.32901548  0.23135258    -0.15800
C17         C  0.65541008  0.36061964  0.22939946    -0.16200
C18         C  0.61860464  0.28089414  0.26492975    -0.16200
C19         C  0.69506044  0.32664979  0.27136864    -0.15800
C20         C  0.65063642  0.35714169  0.26923834    -0.16100
O21         O  0.95843371  0.39242010  0.45582513    -0.73300
O22         O  0.03950191  0.43199491  0.03839620    -0.73300
O23         O  0.95355093  0.39117439  0.03440928    -0.73300
O24         O  0.04418237  0.43356775  0.46020578    -0.73400
O25         O  0.04765975  0.49528740  0.46177881    -0.73300
O26         O  0.95606571  0.45245749  0.03233597    -0.73300
O27         O  0.04085156  0.49280727  0.03922737    -0.73300
O28         O  0.96295119  0.45468163  0.45480631    -0.73300
Ni29       Ni  0.99851699  0.40940743  0.49748586     1.25400
Ni30       Ni  0.00181894  0.47540453  0.49743353     1.25400
C31         C  0.94718089  0.41711949  0.44179682     0.88900
C32         C  0.05363822  0.46896306  0.05225984     0.88900
C33         C  0.93942127  0.41475746  0.04513410     0.88900
C34         C  0.06144328  0.47214734  0.44933455     0.89100
O35         O  0.56413663  0.51539939  0.03633304    -0.73300
O36         O  0.52024024  0.56158619  0.46539170    -0.73300
O37         O  0.55833035  0.51732810  0.45788864    -0.73300
O38         O  0.52568439  0.55975669  0.04379282    -0.73400
O39         O  0.58726556  0.62083008  0.04052164    -0.73300
O40         O  0.62228721  0.57599215  0.45683773    -0.73300
O41         O  0.58305094  0.62097073  0.46076094    -0.73300
O42         O  0.62661942  0.57564731  0.03627558    -0.73300
Ni43       Ni  0.54022269  0.53671963  0.50080000     1.25400
Ni44       Ni  0.60749347  0.60081541  0.49831701     1.25400
C45         C  0.60267036  0.53724767  0.04738980     0.88900
C46         C  0.54393979  0.59834951  0.45093748     0.88900
C47         C  0.59574855  0.53911640  0.44382547     0.88900
C48         C  0.55047901  0.59748477  0.05570408     0.89100
O49         O  0.46941781  0.04882697  0.04095980    -0.73300
O50         O  0.43712115  0.95089872  0.48063871    -0.73300
O51         O  0.47257782  0.03339756  0.46506025    -0.73300
O52         O  0.43495960  0.96639200  0.05676714    -0.73400
O53         O  0.36977450  0.95445468  0.04857507    -0.73300
O54         O  0.40922349  0.02593520  0.45715568    -0.73300
O55         O  0.37344978  0.94223688  0.47129732    -0.73300
O56         O  0.40434838  0.03809836  0.03477508    -0.73300
Ni57       Ni  0.45560264  0.00005618  0.01097628     1.25400
Ni58       Ni  0.38667065  0.98972758  0.00260182     1.25400
C59         C  0.44214001  0.05940318  0.04782541     0.88900
C60         C  0.40005542  0.93053416  0.46558133     0.88900
C61         C  0.44765328  0.04103953  0.44589879     0.88900
C62         C  0.39630176  0.94867355  0.06754385     0.89100
C63         C  0.57050286  0.21607165  0.13713431    -0.27000
C64         C  0.52767317  0.20186562  0.14366425     0.06600
C65         C  0.51582810  0.21573360  0.17681633     0.26200
C66         C  0.54670858  0.24300065  0.20329020    -0.11500
C67         C  0.58942928  0.25616384  0.19708631    -0.25500
C68         C  0.60115592  0.24316919  0.16340004     0.37000
C69         C  0.49619573  0.16861077  0.11802995     0.06600
F70         F  0.47463115  0.20278839  0.18359139    -0.19300
H71         H  0.53734874  0.25381767  0.22862433     0.16400
F72         F  0.64202420  0.25526783  0.15650000    -0.23000
H73         H  0.58015031  0.20483512  0.11231195     0.18200
C74         C  0.50199492  0.17232957  0.07719258     0.26200
C75         C  0.48183760  0.13648910  0.05381001    -0.11500
C76         C  0.45509532  0.09703929  0.07087344    -0.25500
C77         C  0.44588353  0.09374126  0.11098421     0.37100
C78         C  0.46640569  0.12954421  0.13452749    -0.27200
F79         F  0.52990502  0.21000677  0.06047613    -0.19300
H80         H  0.48890131  0.13912556  0.02277324     0.16400
F81         F  0.42026693  0.05549729  0.12781617    -0.23000
H82         H  0.46200050  0.12602156  0.16595490     0.18200
C83         C  0.55013346  0.16577554  0.29438124    -0.27000
C84         C  0.52915342  0.16850464  0.32751180     0.06600
C85         C  0.53732413  0.20822608  0.33960540     0.26200
C86         C  0.56627790  0.24449015  0.31909293    -0.11500
C87         C  0.58698510  0.24185005  0.28576128    -0.25500
C88         C  0.57903390  0.20206011  0.27382088     0.37000
C89         C  0.50420423  0.13113621  0.35276595     0.06600
F90         F  0.51945363  0.21234869  0.37274282    -0.19300
H91         H  0.57316922  0.27456318  0.32998600     0.16400
F92         F  0.60106226  0.19840535  0.24383192    -0.23000
H93         H  0.54519866  0.13561804  0.28526546     0.18200
C94         C  0.46388121  0.11982367  0.36694216     0.26200
C95         C  0.44431317  0.08883615  0.39599315    -0.11500
C96         C  0.46471008  0.06876799  0.41114219    -0.25500
C97         C  0.50364483  0.07805069  0.39462661     0.37100
C98         C  0.52305098  0.10894133  0.36586525    -0.27200
F99         F  0.44398275  0.13944561  0.35340241    -0.19300
H100        H  0.41411834  0.08186136  0.40774099     0.16400
F101        F  0.52389786  0.05835828  0.40707384    -0.23000
H102        H  0.55399521  0.11700313  0.35520164     0.18200
C103        C  0.78041857  0.37812914  0.34780908    -0.27000
C104        C  0.80451660  0.35964886  0.34009554     0.06600
C105        C  0.79029165  0.32739423  0.31212092     0.26200
C106        C  0.75328698  0.31508995  0.29120321    -0.11500
C107        C  0.73043544  0.33518743  0.29748266    -0.25500
C108        C  0.74368501  0.36609927  0.32669482     0.37000
C109        C  0.84403205  0.37402658  0.36191590     0.06600
F110        F  0.81295604  0.30895488  0.30400484    -0.19300
H111        H  0.74297812  0.29049842  0.26944938     0.16400
F112        F  0.72235911  0.38610560  0.33372689    -0.23000
H113        H  0.79037752  0.40232049  0.36998525     0.18200
C114        C  0.87435947  0.41724133  0.36496935     0.26200
C115        C  0.90902538  0.43095178  0.38968604    -0.11500
C116        C  0.91419991  0.40181261  0.41144656    -0.25500
C117        C  0.88523936  0.35838461  0.40638162     0.37100
C118        C  0.85030912  0.34473729  0.38194350    -0.27200
F119        F  0.87001322  0.44621666  0.34460889    -0.19300
H120        H  0.93125789  0.46449329  0.39255657     0.16400
F121        F  0.88908332  0.32913508  0.42675785    -0.23000
H122        H  0.82714228  0.31133277  0.38003447     0.18200
C123        C  0.77332841  0.31877101  0.16370939    -0.27000
C124        C  0.80548033  0.36116402  0.15896134     0.06600
C125        C  0.80400950  0.39235244  0.18120732     0.26200
C126        C  0.76976028  0.38141121  0.20598599    -0.11500
C127        C  0.73690071  0.33935813  0.20919905    -0.25500
C128        C  0.73935808  0.30788029  0.18889943     0.37000
C129        C  0.83887544  0.37314555  0.12906934     0.06600
F130        F  0.83541164  0.43345162  0.17856165    -0.19300
H131        H  0.76828708  0.40583242  0.22196465     0.16400
F132        F  0.70894143  0.26670177  0.19348837    -0.23000
H133        H  0.77378971  0.29423991  0.14697843     0.18200
C134        C  0.86165452  0.35243648  0.12618569     0.26200
C135        C  0.89370665  0.36526527  0.09811167    -0.11500
C136        C  0.90358499  0.39898167  0.07274655    -0.25500
C137        C  0.87970702  0.41862754  0.07487691     0.37100
C138        C  0.84767085  0.40563343  0.10262752    -0.27200
F139        F  0.85396580  0.32085281  0.15129440    -0.19300
H140        H  0.91157006  0.34962842  0.09696294     0.16400
F141        F  0.88697646  0.45026792  0.04997113    -0.23000
H142        H  0.82956692  0.42104324  0.10342573     0.18200
C143        C  0.61661449  0.42529913  0.18034706    -0.27000
C144        C  0.64907037  0.44842276  0.15317518     0.06600
C145        C  0.68473357  0.44440277  0.15250380     0.26200
C146        C  0.68730427  0.41676264  0.17855458    -0.11500
C147        C  0.65434329  0.39297439  0.20524193    -0.25500
C148        C  0.61885386  0.39733361  0.20587046     0.37000
C149        C  0.64218787  0.47221150  0.12285993     0.06600
F150        F  0.71565645  0.46524861  0.12534263    -0.19300
H151        H  0.71443391  0.41299165  0.17718778     0.16400
F152        F  0.58494992  0.37234363  0.22888775    -0.23000
H153        H  0.58849584  0.42749973  0.18043491     0.18200
C154        C  0.60875500  0.45015420  0.09655375     0.26200
C155        C  0.59722111  0.47195783  0.07158021    -0.11500
C156        C  0.61878823  0.51622092  0.07226979    -0.25500
C157        C  0.65391387  0.53853716  0.09715804     0.37100
C158        C  0.66547621  0.51644164  0.12246226    -0.27200
F159        F  0.58640063  0.40733576  0.09593372    -0.19300
H160        H  0.57071985  0.45394863  0.05206074     0.16400
F161        F  0.67557022  0.58128038  0.09848478    -0.23000
H162        H  0.69129996  0.53366890  0.14282760     0.18200
C163        C  0.59954737  0.40100548  0.33320539    -0.27000
C164        C  0.63243561  0.44319094  0.33734167     0.06600
C165        C  0.67172562  0.45671240  0.31926042     0.26200
C166        C  0.67766807  0.42838644  0.29743311    -0.11500
C167        C  0.64470046  0.38638931  0.29353128    -0.25500
C168        C  0.60544710  0.37294180  0.31114042     0.37000
C169        C  0.62548166  0.47226932  0.36126195     0.06600
F170        F  0.70396540  0.49741251  0.32191506    -0.19300
H171        H  0.70789880  0.43919792  0.28331283     0.16400
F172        F  0.57201638  0.33355110  0.30484308    -0.23000
H173        H  0.56910879  0.38968604  0.34705886     0.18200
C174        C  0.58780155  0.47276909  0.35772204     0.26200
C175        C  0.57912620  0.49615659  0.38383048    -0.11500
C176        C  0.60824605  0.52022383  0.41311068    -0.25500
C177        C  0.64694792  0.52181908  0.41533347     0.37100
C178        C  0.65525534  0.49761734  0.38979797    -0.27200
F179        F  0.55904669  0.45013631  0.32946396    -0.19300
H180        H  0.54923362  0.49487368  0.38168131     0.16400
F181        F  0.67523893  0.54416967  0.44399423    -0.23000
H182        H  0.68412923  0.49721945  0.39353416     0.18200
C183        C  0.21428947  0.53559714  0.17703083    -0.27000
C184        C  0.19625657  0.55380767  0.15432775     0.06600
C185        C  0.21558192  0.59792054  0.15331323     0.26200
C186        C  0.25147138  0.62322188  0.17569059    -0.11500
C187        C  0.26851161  0.60501001  0.19950886    -0.25500
C188        C  0.25032287  0.56105141  0.19951162     0.37000
C189        C  0.15714098  0.52719174  0.13189814     0.06600
F190        F  0.19972964  0.61654703  0.13061018    -0.19300
H191        H  0.26525325  0.65708324  0.17534195     0.16400
F192        F  0.26727541  0.54287665  0.22132935    -0.23000
H193        H  0.19995745  0.50168633  0.17794213     0.18200
C194        C  0.15446733  0.49752000  0.10468206     0.26200
C195        C  0.11922495  0.47658561  0.08022125    -0.11500
C196        C  0.08662293  0.48535249  0.08240864    -0.25500
C197        C  0.08820317  0.51313501  0.11115021     0.37100
C198        C  0.12311363  0.53364073  0.13584514    -0.27200
F199        F  0.18701755  0.49086212  0.09998829    -0.19300
H200        H  0.11855646  0.45536159  0.05805406     0.16400
F201        F  0.05636175  0.52100228  0.11485485    -0.23000
H202        H  0.12424283  0.55566637  0.15735086     0.18200
C203        C  0.23557599  0.54674460  0.34168123    -0.27000
C204        C  0.19774065  0.54658140  0.33777238     0.06600
C205        C  0.19359818  0.57004301  0.30774920     0.26200
C206        C  0.22761401  0.59498951  0.28316959    -0.11500
C207        C  0.26606077  0.59662872  0.28800512    -0.25500
C208        C  0.26980960  0.57192465  0.31699598     0.37000
C209        C  0.16462036  0.52676197  0.36780871     0.06600
F210        F  0.15718191  0.57022230  0.30341985    -0.19300
H211        H  0.22455614  0.61461059  0.26153674     0.16400
F212        F  0.30686281  0.57317597  0.32207531    -0.23000
H213        H  0.23922242  0.52908666  0.36501780     0.18200
C214        C  0.14258168  0.48316810  0.37470315     0.26200
C215        C  0.10922374  0.46529283  0.40174309    -0.11500
C216        C  0.09785283  0.49086605  0.42221000    -0.25500
C217        C  0.12143328  0.53484016  0.41613939     0.37100
C218        C  0.15434527  0.55237415  0.38916411    -0.27200
F219        F  0.15236404  0.45792271  0.35439116    -0.19300
H220        H  0.09182422  0.43147636  0.40607466     0.16400
F221        F  0.11289269  0.56119752  0.43613262    -0.23000
H222        H  0.17175591  0.58618967  0.38460197     0.18200
C223        C  0.48163010  0.60104993  0.13470836    -0.27000
C224        C  0.49265769  0.64325048  0.13268335     0.06600
C225        C  0.52701675  0.67181892  0.10934939     0.28100
C226        C  0.54808674  0.65735516  0.08608232    -0.11500
C227        C  0.53486841  0.61434293  0.08593777    -0.25500
C228        C  0.50249363  0.58660142  0.11162663     0.37000
C229        C  0.46583422  0.65572195  0.15309264     0.06600
F230        F  0.53822514  0.71285975  0.10709960    -0.19300
H231        H  0.57290458  0.67922011  0.06645578     0.16400
F232        F  0.48998303  0.54517052  0.11347141    -0.23000
H233        H  0.45571583  0.57890886  0.15328337     0.18200
C234        C  0.42238963  0.63461129  0.14466613     0.26200
C235        C  0.39541350  0.64114228  0.16788688    -0.11500
C236        C  0.41134458  0.66903303  0.19958966    -0.25500
C237        C  0.45533247  0.69289184  0.20602601     0.37100
C238        C  0.48239377  0.68586160  0.18303303    -0.27200
F239        F  0.40593644  0.60667384  0.11465313    -0.19300
H240        H  0.36170578  0.62291570  0.16209265     0.16400
F241        F  0.47197674  0.72225075  0.23483530    -0.23000
H242        H  0.51596491  0.70275163  0.18944563     0.18200
C243        C  0.46139984  0.68378183  0.34261829    -0.27000
C244        C  0.46722541  0.65005818  0.33503431     0.06600
C245        C  0.44610278  0.62289210  0.30349371     0.26200
C246        C  0.41838243  0.62872000  0.28055790    -0.11500
C247        C  0.41147785  0.66163273  0.28894104    -0.25500
C248        C  0.43340615  0.68942699  0.31985533     0.37000
C249        C  0.48830393  0.63840852  0.36435209     0.06600
F250        F  0.45094859  0.58970040  0.29609461    -0.19300
H251        H  0.40132725  0.60684983  0.25702479     0.16400
F252        F  0.42724487  0.72158240  0.32831975    -0.23000
H253        H  0.47684958  0.70433535  0.36738827     0.18200
C254        C  0.53213887  0.66249430  0.37077736     0.26200
C255        C  0.55049164  0.64998695  0.39950789    -0.11500
C256        C  0.52507500  0.61363583  0.42218813    -0.25500
C257        C  0.48090159  0.59056964  0.41607281     0.37100
C258        C  0.46301253  0.60280928  0.38729574    -0.27200
F259        F  0.55703428  0.69737170  0.34885411    -0.19300
H260        H  0.58444812  0.66828738  0.40360948     0.16400
F261        F  0.45456401  0.55608711  0.43789884    -0.23000
H262        H  0.42903699  0.58455403  0.38304862     0.18200
C263        C  0.38756686  0.80461383  0.16933427    -0.27000
C264        C  0.35912725  0.81820281  0.17645670     0.06600
C265        C  0.32500633  0.79523872  0.20226893     0.26200
C266        C  0.31970678  0.75915609  0.22073696    -0.11500
C267        C  0.34833043  0.74579634  0.21345610    -0.25500
C268        C  0.38232055  0.76877003  0.18769885     0.37000
C269        C  0.36502281  0.85543077  0.15521861     0.06600
F270        F  0.29742715  0.80810009  0.21000606    -0.19300
H271        H  0.29341456  0.74165803  0.24072244     0.16400
F272        F  0.41115623  0.75723042  0.18116098    -0.23000
H273        H  0.41379507  0.82171213  0.14918605     0.18200
C274        C  0.40468592  0.89294921  0.15543173     0.26200
C275        C  0.41342749  0.92478137  0.12867422    -0.11500
C276        C  0.38283201  0.91973793  0.10125988    -0.25500
C277        C  0.34194659  0.88370245  0.10326100     0.37100
C278        C  0.33318780  0.85171701  0.13017214    -0.27200
F279        F  0.43573855  0.89772567  0.18000317    -0.19300
H280        H  0.44499342  0.95250711  0.12800123     0.16400
F281        F  0.31177465  0.87754812  0.07695635    -0.23000
H282        H  0.30254429  0.82279353  0.12948775     0.18200
C283        C  0.40697299  0.84934079  0.40474304    -0.27000
C284        C  0.36669190  0.82747567  0.38768241     0.06600
C285        C  0.33622746  0.83734335  0.39863646     0.26200
C286        C  0.34692727  0.87024966  0.42487191    -0.11500
C287        C  0.38803328  0.89356908  0.44059169    -0.25500
C288        C  0.41775303  0.88214060  0.43081943     0.37000
C289        C  0.35815826  0.79614959  0.35705698     0.06600
F290        F  0.29690489  0.81656882  0.38268715    -0.19300
H291        H  0.32329375  0.87808192  0.43211579     0.16400
F292        F  0.45768084  0.90326476  0.44540499    -0.23000
H293        H  0.43054178  0.84150865  0.39713381     0.18200
C294        C  0.38634152  0.80728974  0.32538825     0.26200
C295        C  0.38108035  0.77702857  0.29832225    -0.11500
C296        C  0.34702244  0.73547565  0.30169985    -0.25500
C297        C  0.31807527  0.72434917  0.33271974     0.37100
C298        C  0.32363447  0.75466403  0.36026624    -0.27200
F299        F  0.41916397  0.84750990  0.32077273    -0.19300
H300        H  0.40402329  0.78595489  0.27493522     0.16400
F301        F  0.28456550  0.68434987  0.33630852    -0.23000
H302        H  0.30171683  0.74558144  0.38457612     0.18200
C303        C  0.34381866  0.67299869  0.70997247     0.46600
H304        H  0.34437556  0.67701971  0.67767267    -0.02400
C305        C  0.34212922  0.66382173  0.78562651     0.46700
H306        H  0.34138993  0.65992132  0.81795450    -0.02400
C307        C  0.30451088  0.63280319  0.72483457    -0.16100
C308        C  0.38134957  0.67082178  0.72586667    -0.15800
C309        C  0.34451688  0.70884437  0.73279863    -0.16200
C310        C  0.30364421  0.62800467  0.76471192    -0.16200
C311        C  0.38052619  0.66620075  0.76582644    -0.15800
C312        C  0.34335003  0.70387829  0.77265490    -0.16100
C313        C  0.66044278  0.32646448  0.71088958     0.46600
H314        H  0.66386904  0.32952357  0.67852109    -0.02400
C315        C  0.65255090  0.32031341  0.78676550     0.46700
H316        H  0.64947055  0.31793450  0.81916962    -0.02400
C317        C  0.62163974  0.28542038  0.72500359    -0.16100
C318        C  0.69812503  0.32877550  0.73161100    -0.15800
C319        C  0.65563668  0.36108011  0.72953656    -0.16200
C320        C  0.61808114  0.28123816  0.76504219    -0.16200
C321        C  0.69457852  0.32640264  0.77161834    -0.15800
C322        C  0.65078253  0.35759708  0.76937538    -0.16100
O323        O  0.95877931  0.39306769  0.95535843    -0.73300
O324        O  0.03902342  0.43080234  0.53900766    -0.73300
O325        O  0.95307045  0.39010763  0.53488039    -0.73300
O326        O  0.04455423  0.43442335  0.95960950    -0.73400
O327        O  0.04786702  0.49606772  0.96089464    -0.73300
O328        O  0.95570076  0.45145763  0.53307317    -0.73300
O329        O  0.04046730  0.49165531  0.54009274    -0.73300
O330        O  0.96311674  0.45524057  0.95404780    -0.73300
Ni331      Ni  0.99894237  0.41035364  0.99695659     1.25400
Ni332      Ni  0.00209633  0.47627822  0.99660681     1.25400
C333        C  0.94738218  0.41760707  0.94122606     0.88900
C334        C  0.05320161  0.46772937  0.55300882     0.88900
C335        C  0.93896562  0.41368073  0.54569561     0.88900
C336        C  0.06172184  0.47294666  0.94857793     0.89100
O337        O  0.56443346  0.51555125  0.53578162    -0.73300
O338        O  0.51969148  0.56092358  0.96571465    -0.73300
O339        O  0.55820734  0.51706111  0.95845338    -0.73300
O340        O  0.52638004  0.56029690  0.54345466    -0.73400
O341        O  0.58806537  0.62125728  0.54005866    -0.73300
O342        O  0.62201826  0.57591881  0.95743127    -0.73300
O343        O  0.58236356  0.62049367  0.96119963    -0.73300
O344        O  0.62700554  0.57570890  0.53570740    -0.73300
Ni345      Ni  0.53981498  0.53631076  0.00124673     1.25400
Ni346      Ni  0.60695015  0.60057074  0.99884143     1.25400
C347        C  0.60297037  0.53733138  0.54685250     0.88900
C348        C  0.54330023  0.59769678  0.95126029     0.88900
C349        C  0.59563320  0.53899231  0.94443611     0.88900
C350        C  0.55131547  0.59800998  0.55533993     0.89100
O351        O  0.46944924  0.04918594  0.54124762    -0.73300
O352        O  0.43684882  0.95056138  0.98021022    -0.73300
O353        O  0.47230757  0.03311298  0.96471692    -0.73300
O354        O  0.43499477  0.96680665  0.55715628    -0.73400
O355        O  0.36982485  0.95484946  0.54876553    -0.73300
O356        O  0.40895352  0.02570589  0.95705436    -0.73300
O357        O  0.37316967  0.94193923  0.97106608    -0.73300
O358        O  0.40439265  0.03843756  0.53481261    -0.73300
Ni359      Ni  0.45575494  0.00040601  0.51134831     1.25400
Ni360      Ni  0.38683093  0.99004015  0.50273417     1.25400
C361        C  0.44213390  0.05974383  0.54797353     0.88900
C362        C  0.39973026  0.93019440  0.96525904     0.88900
C363        C  0.44736175  0.04084675  0.94570534     0.88900
C364        C  0.39632240  0.94913538  0.56786870     0.89100
C365        C  0.57021654  0.21668292  0.63709623    -0.27000
C366        C  0.52735854  0.20229267  0.64369583     0.06600
C367        C  0.51545434  0.21601912  0.67690707     0.26200
C368        C  0.54630785  0.24332039  0.70337720    -0.11500
C369        C  0.58905989  0.25663038  0.69712915    -0.25500
C370        C  0.60084098  0.24379046  0.66336926     0.37000
C371        C  0.49593602  0.16896862  0.61809050     0.06600
F372        F  0.47422135  0.20287045  0.68376346    -0.19300
H373        H  0.53689374  0.25401723  0.72876060     0.16400
F374        F  0.64173291  0.25601093  0.65640898    -0.23000
H375        H  0.57991572  0.20555259  0.61222999     0.18200
C376        C  0.50171098  0.17266965  0.57724965     0.26200
C377        C  0.48162476  0.13681035  0.55389486    -0.11500
C378        C  0.45498515  0.09736032  0.57099117    -0.25500
C379        C  0.44580031  0.09405811  0.61110601     0.37100
C380        C  0.46624797  0.12988152  0.63462217    -0.27200
F381        F  0.52954322  0.21035492  0.56050214    -0.19300
H382        H  0.48867416  0.13943823  0.52285523     0.16400
F383        F  0.42028467  0.05580528  0.62796385    -0.23000
H384        H  0.46187326  0.12636929  0.66605281     0.18200
C385        C  0.54959168  0.16607637  0.79439546    -0.27000
C386        C  0.52848760  0.16871821  0.82747378     0.06600
C387        C  0.53649055  0.20839894  0.83950794     0.26200
C388        C  0.56551980  0.24471534  0.81908004    -0.11500
C389        C  0.58636964  0.24215947  0.78581176    -0.25500
C390        C  0.57849235  0.20239675  0.77387359     0.37000
C391        C  0.50368723  0.13133558  0.85277772     0.06600
F392        F  0.51840697  0.21244559  0.87253038    -0.19300
H393        H  0.57237093  0.27474096  0.83001500     0.16400
F394        F  0.60062298  0.19880840  0.74394118    -0.23000
H395        H  0.54477323  0.13595738  0.78530525     0.18200
C396        C  0.46328581  0.11976541  0.86694260     0.26200
C397        C  0.44381294  0.08867224  0.89592999    -0.11500
C398        C  0.46437808  0.06874785  0.91103539    -0.25500
C399        C  0.50342883  0.07833700  0.89456215     0.37100
C400        C  0.52273754  0.10932974  0.86587338    -0.27200
F401        F  0.44318556  0.13919121  0.85342045    -0.19300
H402        H  0.41353392  0.08147665  0.90764396     0.16400
F403        F  0.52388413  0.05883413  0.90696694    -0.23000
H404        H  0.55375059  0.11759306  0.85523684     0.18200
C405        C  0.78006221  0.37783670  0.84790071    -0.27000
C406        C  0.80392759  0.35907051  0.84035466     0.06600
C407        C  0.78937972  0.32650461  0.81266414     0.26200
C408        C  0.75238244  0.31429467  0.79174961    -0.11500
C409        C  0.72983564  0.33474422  0.79780508    -0.25500
C410        C  0.74334239  0.36588929  0.82680944     0.37000
C411        C  0.84364559  0.37365800  0.86191844     0.06600
F412        F  0.81175612  0.30771429  0.80475842    -0.19300
H413        H  0.74187485  0.28954475  0.77013231     0.16400
F414        F  0.72233539  0.38626312  0.83359096    -0.23000
H415        H  0.79024081  0.40225495  0.86987467     0.18200
C416        C  0.87396217  0.41691786  0.86461398     0.26200
C417        C  0.90882157  0.43090097  0.88912769    -0.11500
C418        C  0.91423554  0.40199579  0.91101415    -0.25500
C419        C  0.88532351  0.35850603  0.90625298     0.37100
C420        C  0.85017192  0.34458524  0.88204658    -0.27200
F421        F  0.86941409  0.44568935  0.84411243    -0.19300
H422        H  0.93101564  0.46447737  0.89175177     0.16400
F423        F  0.88943319  0.32946812  0.92671955    -0.23000
H424        H  0.82704138  0.31115226  0.88041064     0.18200
C425        C  0.77267297  0.31787041  0.66412637    -0.27000
C426        C  0.80499991  0.36019073  0.65938606     0.06600
C427        C  0.80375869  0.39150746  0.68161240     0.26200
C428        C  0.76954363  0.38078457  0.70635843    -0.11500
C429        C  0.73648325  0.33881843  0.70954875    -0.25500
C430        C  0.73870815  0.30719104  0.68926720     0.37000
C431        C  0.83830610  0.37201709  0.62945486     0.06600
F432        F  0.83533648  0.43253259  0.67893157    -0.19300
H433        H  0.76823604  0.40531798  0.72230026     0.16400
F434        F  0.70803952  0.26608702  0.69377017    -0.23000
H435        H  0.77299129  0.29325778  0.64740337     0.18200
C436        C  0.86122438  0.35144247  0.62678169     0.26200
C437        C  0.89331462  0.36426133  0.59874478    -0.11500
C438        C  0.90304263  0.39780521  0.57320101    -0.25500
C439        C  0.87895485  0.41723587  0.57506966     0.37100
C440        C  0.84692192  0.40428661  0.60281175    -0.27200
F441        F  0.85364597  0.32003615  0.65207447    -0.19300
H442        H  0.91133717  0.34878345  0.59777524     0.16400
F443        F  0.88603608  0.44862893  0.54992048    -0.23000
H444        H  0.82869997  0.41957721  0.60347607     0.18200
C445        C  0.61718164  0.42603107  0.68032633    -0.27000
C446        C  0.64941386  0.44867613  0.65284673     0.06600
C447        C  0.68483773  0.44426367  0.65198586     0.26200
C448        C  0.68742825  0.41676982  0.67822592    -0.11500
C449        C  0.65469873  0.39347321  0.70527514    -0.25500
C450        C  0.61942267  0.39819650  0.70603843     0.37000
C451        C  0.64253748  0.47243605  0.62249257     0.06600
F452        F  0.71550173  0.46460776  0.62449973    -0.19300
H453        H  0.71437231  0.41270457  0.67672011     0.16400
F454        F  0.58566083  0.37363750  0.72935919    -0.23000
H455        H  0.58922013  0.42850184  0.68053401     0.18200
C456        C  0.60946172  0.45033611  0.59584599     0.26200
C457        C  0.59786915  0.47208640  0.57082498    -0.11500
C458        C  0.61903964  0.51632278  0.57182422    -0.25500
C459        C  0.65373755  0.53868903  0.59716033     0.37100
C460        C  0.66534578  0.51666057  0.62249457    -0.27200
F461        F  0.58750319  0.40752719  0.59494687    -0.19300
H462        H  0.57165681  0.45407592  0.55101344     0.16400
F463        F  0.67487405  0.58139946  0.59891388    -0.23000
H464        H  0.69082231  0.53391305  0.64318432     0.18200
C465        C  0.59988319  0.40133941  0.83369674    -0.27000
C466        C  0.63272817  0.44353358  0.83781090     0.06600
C467        C  0.67194803  0.45716736  0.81953942     0.26200
C468        C  0.67786682  0.42890764  0.79755554    -0.11500
C469        C  0.64492193  0.38688732  0.79367920    -0.25500
C470        C  0.60573308  0.37337391  0.81144382     0.37000
C471        C  0.62572235  0.47252072  0.86179765     0.06600
F472        F  0.70411376  0.49790556  0.82215488    -0.19300
H473        H  0.70804906  0.43977897  0.78331354     0.16400
F474        F  0.57226673  0.33404312  0.80503557    -0.23000
H475        H  0.56948599  0.38995243  0.84766347     0.18200
C476        C  0.58800109  0.47293677  0.85825929     0.26200
C477        C  0.57923728  0.49622292  0.88439294    -0.11500
C478        C  0.60827792  0.52022820  0.91373839    -0.25500
C479        C  0.64700129  0.52186707  0.91601540     0.37100
C480        C  0.65543120  0.49780693  0.89040146    -0.27200
F481        F  0.55927243  0.45029000  0.82998779    -0.19300
H482        H  0.54932213  0.49489179  0.88222224     0.16400
F483        F  0.67518025  0.54410999  0.94478729    -0.23000
H484        H  0.68433132  0.49745333  0.89412140     0.18200
C485        C  0.21489290  0.53540532  0.67674806    -0.27000
C486        C  0.19672345  0.55334340  0.65386598     0.06600
C487        C  0.21611489  0.59745489  0.65232429     0.26200
C488        C  0.25212996  0.62302938  0.67447921    -0.11500
C489        C  0.26921818  0.60508274  0.69858700    -0.25500
C490        C  0.25104848  0.56112067  0.69897873     0.37000
C491        C  0.15732229  0.52643368  0.63190427     0.06600
F492        F  0.20013881  0.61580278  0.62939848    -0.19300
H493        H  0.26590358  0.65688452  0.67380726     0.16400
F494        F  0.26806980  0.54317847  0.72103526    -0.23000
H495        H  0.20053215  0.50150419  0.67805270     0.18200
C496        C  0.15422661  0.49628338  0.60504751     0.26200
C497        C  0.11871959  0.47510181  0.58092059    -0.11500
C498        C  0.08625363  0.48406657  0.58311102    -0.25500
C499        C  0.08820126  0.51223067  0.61162736     0.37100
C500        C  0.12339341  0.53301467  0.63596109    -0.27200
F501        F  0.18662784  0.48940603  0.60032304    -0.19300
H502        H  0.11777176  0.45357227  0.55894415     0.16400
F503        F  0.05649107  0.52028347  0.61538685    -0.23000
H504        H  0.12482773  0.55537885  0.65723578     0.18200
C505        C  0.23565998  0.54704559  0.84076664    -0.27000
C506        C  0.19791887  0.54706616  0.83684756     0.06600
C507        C  0.19388102  0.57052856  0.80674510     0.26200
C508        C  0.22793243  0.59534607  0.78215565    -0.11500
C509        C  0.26630172  0.59685163  0.78706194    -0.25500
C510        C  0.26991918  0.57208771  0.81606841     0.37000
C511        C  0.16478418  0.52736695  0.86690095     0.06600
F512        F  0.15753963  0.57083530  0.80233662    -0.19300
H513        H  0.22497796  0.61498740  0.76046979     0.16400
F514        F  0.30688646  0.57316929  0.82115996    -0.23000
H515        H  0.23923180  0.52936901  0.86413260     0.18200
C516        C  0.14319107  0.48388813  0.87437243     0.26200
C517        C  0.10986703  0.46608971  0.90144811    -0.11500
C518        C  0.09810011  0.49162634  0.92140935    -0.25500
C519        C  0.12127639  0.53552170  0.91481006     0.37100
C520        C  0.15414429  0.55297355  0.88779060    -0.27200
F521        F  0.15338120  0.45865040  0.85459778    -0.19300
H522        H  0.09281782  0.43234585  0.90621704     0.16400
F523        F  0.11238654  0.56188899  0.93432057    -0.23000
H524        H  0.17125254  0.58672442  0.88285171     0.18200
C525        C  0.48310023  0.60167268  0.63492966    -0.27000
C526        C  0.49380608  0.64376670  0.63270480     0.06600
C527        C  0.52784255  0.67231030  0.60904069     0.28100
C528        C  0.54887329  0.65789046  0.58564926    -0.11500
C529        C  0.53591186  0.61494314  0.58569475    -0.25500
C530        C  0.50390397  0.58726497  0.61170449     0.37000
C531        C  0.46680680  0.65605895  0.65306481     0.06600
F532        F  0.53871193  0.71324037  0.60656525    -0.19300
H533        H  0.57340190  0.67969852  0.56576319     0.16400
F534        F  0.49164835  0.54590717  0.61368848    -0.23000
H535        H  0.45741676  0.57955232  0.65372262     0.18200
C536        C  0.42336679  0.63475202  0.64457527     0.26200
C537        C  0.39624659  0.64124659  0.66762011    -0.11500
C538        C  0.41201281  0.66923093  0.69925866    -0.25500
C539        C  0.45597165  0.69317524  0.70584023     0.37100
C540        C  0.48319294  0.68624807  0.68297167    -0.27200
F541        F  0.40706249  0.60666981  0.61466302    -0.19300
H542        H  0.36255612  0.62292048  0.66175628     0.16400
F543        F  0.47241356  0.72246754  0.73472011    -0.23000
H544        H  0.51674919  0.70325115  0.68945826     0.18200
C545        C  0.46008815  0.68229626  0.84334076    -0.27000
C546        C  0.46663928  0.64916132  0.83511946     0.06600
C547        C  0.44641900  0.62276778  0.80290979     0.26200
C548        C  0.41897801  0.62887512  0.77980517    -0.11500
C549        C  0.41148888  0.66132439  0.78867493    -0.25500
C550        C  0.43240871  0.68823453  0.82040790     0.37000
C551        C  0.48766411  0.63732200  0.86429884     0.06600
F552        F  0.45191320  0.59008391  0.79494078    -0.19300
H553        H  0.40259848  0.60755972  0.75573614     0.16400
F554        F  0.42555196  0.71979926  0.82952559    -0.23000
H555        H  0.47479036  0.70218414  0.86866168     0.18200
C556        C  0.53150855  0.66134500  0.87063964     0.26200
C557        C  0.54984835  0.64896356  0.89947954    -0.11500
C558        C  0.52441215  0.61278800  0.92235009    -0.25500
C559        C  0.48023161  0.58970369  0.91624806     0.37100
C560        C  0.46234462  0.60182119  0.88734352    -0.27200
F561        F  0.55641420  0.69610819  0.84858739    -0.19300
H562        H  0.58381139  0.66724552  0.90354228     0.16400
F563        F  0.45389665  0.55538241  0.93825908    -0.23000
H564        H  0.42836310  0.58361522  0.88312976     0.18200
C565        C  0.38777772  0.80511676  0.66892543    -0.27000
C566        C  0.35945718  0.81874805  0.67653833     0.06600
C567        C  0.32551321  0.79570118  0.70248608     0.26200
C568        C  0.32024338  0.75947207  0.72059478    -0.11500
C569        C  0.34875914  0.74606400  0.71287598    -0.25500
C570        C  0.38256449  0.76911087  0.68694294     0.37000
C571        C  0.36516925  0.85602305  0.65555216     0.06600
F572        F  0.29808493  0.80863194  0.71070708    -0.19300
H573        H  0.29408482  0.74193041  0.74070296     0.16400
F574        F  0.41126897  0.75750533  0.67991679    -0.23000
H575        H  0.41386950  0.82230426  0.64865882     0.18200
C576        C  0.40472207  0.89365488  0.65590357     0.26200
C577        C  0.41338034  0.92549972  0.62918800    -0.11500
C578        C  0.38281485  0.92032026  0.60167082    -0.25500
C579        C  0.34198659  0.88420270  0.60361121     0.37100
C580        C  0.33330797  0.85221988  0.63049201    -0.27200
F581        F  0.43577385  0.89850489  0.68051413    -0.19300
H582        H  0.44489141  0.95330965  0.62857519     0.16400
F583        F  0.31183525  0.87794518  0.57723835    -0.23000
H584        H  0.30273936  0.82321165  0.62973390     0.18200
C585        C  0.40642066  0.84876816  0.90458355    -0.27000
C586        C  0.36626193  0.82716249  0.88727639     0.06600
C587        C  0.33587220  0.83718544  0.89808152     0.26200
C588        C  0.34658130  0.87006947  0.92436219    -0.11500
C589        C  0.38761096  0.89318121  0.94028808    -0.25500
C590        C  0.41719367  0.88150351  0.93073563     0.37000
C591        C  0.35784620  0.79599045  0.85652731     0.06600
F592        F  0.29664282  0.81660332  0.88193393    -0.19300
H593        H  0.32303644  0.87806619  0.93146107     0.16400
F594        F  0.45699444  0.90231918  0.94561949    -0.23000
H595        H  0.42991365  0.84079415  0.89709271     0.18200
C596        C  0.38613002  0.80733285  0.82491930     0.26200
C597        C  0.38113303  0.77718567  0.79782920    -0.11500
C598        C  0.34722147  0.73553996  0.80110951    -0.25500
C599        C  0.31815461  0.72422505  0.83206147     0.37100
C600        C  0.32345594  0.75442926  0.85963318    -0.27200
F601        F  0.41882525  0.84763678  0.82042223    -0.19300
H602        H  0.40416031  0.78627742  0.77449532     0.16400
F603        F  0.28478046  0.68414314  0.83557083    -0.23000
H604        H  0.30146506  0.74520115  0.88389842     0.18200
loop_ 
_geom_bond_atom_site_label_1 
_geom_bond_atom_site_label_2 
_geom_bond_distance 
_geom_bond_site_symmetry_2 
_ccdc_geom_bond_type 
C1            H2   1.112       .  S
C1            C7   1.530       .  S
C1            C6   1.530       .  S
C1            C5   1.529       .  S
C3            H4   1.112       .  S
C3            C9   1.532       .  S
C3            C8   1.531       .  S
C3           C10   1.529       .  S
C5            C8   1.371       .  D
C5          C187   1.474       .  S
C6            C9   1.373       .  D
C6          C236   1.476       .  S
C7           C10   1.370       .  D
C7          C267   1.472       .  S
C8          C207   1.471       .  S
C9          C247   1.472       .  S
C10         C296   1.473       .  S
C11          H12   1.111       .  S
C11          C17   1.525       .  S
C11          C16   1.525       .  S
C11          C15   1.529       .  S
C13          H14   1.111       .  S
C13          C19   1.538       .  S
C13          C18   1.537       .  S
C13          C20   1.537       .  S
C15          C18   1.374       .  D
C15          C67   1.472       .  S
C16          C19   1.371       .  D
C16         C127   1.471       .  S
C17          C20   1.369       .  D
C17         C147   1.474       .  S
C18          C87   1.486       .  S
C19         C107   1.476       .  S
C20         C167   1.471       .  S
O21         Ni29   1.912       .  S
O21          C31   1.280       .  A
O22        Ni331   1.911   1_454  S
O22          C32   1.279       .  A
O23        Ni331   1.926   1_554  S
O23          C33   1.284       .  A
O24         Ni29   1.922   1_455  S
O24          C34   1.283       .  A
O25         Ni30   1.895       .  S
O25          C34   1.278       .  A
O26        Ni332   1.896   1_654  S
O26          C33   1.277       .  A
O27        Ni332   1.908   1_554  S
O27          C32   1.280       .  A
O28         Ni30   1.907   1_655  S
O28          C31   1.280       .  A
Ni29        O324   1.912   1_655  S
Ni29        O325   1.926       .  S
Ni29        Ni30   2.388   1_655  S
Ni30        O328   1.896   1_455  S
Ni30        O329   1.908       .  S
C31         C116   1.473       .  S
C32         C196   1.467       .  S
C33         C136   1.475       .  S
C34         C216   1.475       .  S
O35        Ni345   1.890       .  S
O35          C45   1.277       .  A
O36         Ni43   1.889       .  S
O36          C46   1.276       .  A
O37         Ni43   1.900       .  S
O37          C47   1.278       .  A
O38        Ni345   1.901       .  S
O38          C48   1.279       .  A
O39        Ni346   1.920   1_554  S
O39          C48   1.281       .  A
O40         Ni44   1.917       .  S
O40          C47   1.281       .  A
O41         Ni44   1.930       .  S
O41          C46   1.284       .  A
O42        Ni346   1.928   1_554  S
O42          C45   1.283       .  A
Ni43        O337   1.891       .  S
Ni43        O340   1.901       .  S
Ni43        Ni44   2.389       .  S
Ni44        O341   1.920       .  S
Ni44        O344   1.928       .  S
C45         C156   1.473       .  S
C46         C256   1.478       .  S
C47         C176   1.463       .  S
C48         C227   1.471       .  S
O49         Ni57   1.905       .  S
O49          C59   1.279       .  A
O50        Ni359   1.908   1_565  S
O50          C60   1.281       .  A
O51        Ni359   1.894       .  S
O51          C61   1.277       .  A
O52         Ni57   1.895   1_565  S
O52          C62   1.277       .  A
O53         Ni58   1.927       .  S
O53          C62   1.283       .  A
O54        Ni360   1.931   1_545  S
O54          C61   1.285       .  A
O55        Ni360   1.907       .  S
O55          C60   1.280       .  A
O56         Ni58   1.909   1_545  S
O56          C59   1.277       .  A
Ni57        O352   1.908   1_544  S
Ni57        O353   1.894   1_554  S
Ni57        Ni58   2.389   1_545  S
Ni58        O356   1.931   1_564  S
Ni58        O357   1.908   1_554  S
C59          C76   1.452       .  S
C60         C287   1.476       .  S
C61          C96   1.479       .  S
C62         C276   1.472       .  S
C63          C64   1.402       .  A
C63          C68   1.386       .  A
C63          H73   1.083       .  S
C64          C69   1.469       .  S
C64          C65   1.404       .  A
C65          C66   1.396       .  A
C65          F70   1.357       .  S
C66          C67   1.405       .  A
C66          H71   1.083       .  S
C67          C68   1.400       .  A
C68          F72   1.354       .  S
C69          C74   1.406       .  A
C69          C78   1.404       .  A
C74          C75   1.392       .  A
C74          F79   1.358       .  S
C75          C76   1.398       .  A
C75          H80   1.083       .  S
C76          C77   1.401       .  A
C77          C78   1.394       .  A
C77          F81   1.358       .  S
C78          H82   1.083       .  S
C83          C84   1.404       .  A
C83          C88   1.396       .  A
C83          H93   1.082       .  S
C84          C89   1.478       .  S
C84          C85   1.405       .  A
C85          C86   1.396       .  A
C85          F90   1.358       .  S
C86          C87   1.402       .  A
C86          H91   1.075       .  S
C87          C88   1.409       .  A
C88          F92   1.357       .  S
C89          C94   1.407       .  A
C89          C98   1.400       .  A
C94          C95   1.401       .  A
C94          F99   1.357       .  S
C95          C96   1.405       .  A
C95         H100   1.083       .  S
C96          C97   1.411       .  A
C97          C98   1.391       .  A
C97         F101   1.358       .  S
C98         H102   1.083       .  S
C103        C104   1.403       .  A
C103        C108   1.392       .  A
C103        H113   1.083       .  S
C104        C109   1.472       .  S
C104        C105   1.404       .  A
C105        C106   1.394       .  A
C105        F110   1.357       .  S
C106        C107   1.404       .  A
C106        H111   1.082       .  S
C107        C108   1.404       .  A
C108        F112   1.356       .  S
C109        C114   1.405       .  A
C109        C118   1.402       .  A
C114        C115   1.393       .  A
C114        F119   1.358       .  S
C115        C116   1.404       .  A
C115        H120   1.083       .  S
C116        C117   1.408       .  A
C117        C118   1.395       .  A
C117        F121   1.357       .  S
C118        H122   1.083       .  S
C123        C124   1.404       .  A
C123        C128   1.396       .  A
C123        H133   1.083       .  S
C124        C129   1.479       .  S
C124        C125   1.409       .  A
C125        C126   1.395       .  A
C125        F130   1.358       .  S
C126        C127   1.398       .  A
C126        H131   1.084       .  S
C127        C128   1.402       .  A
C128        F132   1.356       .  S
C129        C134   1.408       .  A
C129        C138   1.402       .  A
C134        C135   1.400       .  A
C134        F139   1.357       .  S
C135        C136   1.404       .  A
C135        H140   1.083       .  S
C136        C137   1.409       .  A
C137        C138   1.391       .  A
C137        F141   1.358       .  S
C138        H142   1.083       .  S
C143        C144   1.401       .  A
C143        C148   1.390       .  A
C143        H153   1.084       .  S
C144        C149   1.466       .  S
C144        C145   1.402       .  A
C145        C146   1.397       .  A
C145        F150   1.357       .  S
C146        C147   1.404       .  A
C146        H151   1.083       .  S
C147        C148   1.403       .  A
C148        F152   1.355       .  S
C149        C154   1.399       .  A
C149        C158   1.403       .  A
C154        C155   1.386       .  A
C154        F159   1.358       .  S
C155        C156   1.405       .  A
C155        H160   1.083       .  S
C156        C157   1.408       .  A
C157        C158   1.402       .  A
C157        F161   1.357       .  S
C158        H162   1.083       .  S
C163        C164   1.405       .  A
C163        C168   1.392       .  A
C163        H173   1.083       .  S
C164        C169   1.479       .  S
C164        C165   1.408       .  A
C165        C166   1.396       .  A
C165        F170   1.357       .  S
C166        C167   1.400       .  A
C166        H171   1.084       .  S
C167        C168   1.400       .  A
C168        F172   1.355       .  S
C169        C174   1.408       .  A
C169        C178   1.405       .  A
C174        C175   1.393       .  A
C174        F179   1.358       .  S
C175        C176   1.401       .  A
C175        H180   1.084       .  S
C176        C177   1.403       .  A
C177        C178   1.396       .  A
C177        F181   1.358       .  S
C178        H182   1.083       .  S
C183        C184   1.404       .  A
C183        C188   1.398       .  A
C183        H193   1.083       .  S
C184        C189   1.475       .  S
C184        C185   1.406       .  A
C185        C186   1.391       .  A
C185        F190   1.358       .  S
C186        C187   1.399       .  A
C186        H191   1.084       .  S
C187        C188   1.405       .  A
C188        F192   1.357       .  S
C189        C194   1.405       .  A
C189        C198   1.403       .  A
C194        C195   1.397       .  A
C194        F199   1.357       .  S
C195        C196   1.404       .  A
C195        H200   1.084       .  S
C196        C197   1.403       .  A
C197        C198   1.393       .  A
C197        F201   1.358       .  S
C198        H202   1.084       .  S
C203        C204   1.402       .  A
C203        C208   1.397       .  A
C203        H213   1.083       .  S
C204        C209   1.467       .  S
C204        C205   1.404       .  A
C205        C206   1.389       .  A
C205        F210   1.358       .  S
C206        C207   1.401       .  A
C206        H211   1.083       .  S
C207        C208   1.404       .  A
C208        F212   1.358       .  S
C209        C214   1.403       .  A
C209        C218   1.398       .  A
C214        C215   1.400       .  A
C214        F219   1.357       .  S
C215        C216   1.407       .  A
C215        H220   1.083       .  S
C216        C217   1.410       .  A
C217        C218   1.388       .  A
C217        F221   1.358       .  S
C218        H222   1.084       .  S
C223        C224   1.400       .  A
C223        C228   1.390       .  A
C223        H233   1.084       .  S
C224        C229   1.469       .  S
C224        C225   1.403       .  A
C225        C226   1.400       .  A
C225        F230   1.357       .  S
C226        C227   1.406       .  A
C226        H231   1.083       .  S
C227        C228   1.406       .  A
C228        F232   1.358       .  S
C229        C234   1.404       .  A
C229        C238   1.401       .  A
C234        C235   1.389       .  A
C234        F239   1.358       .  S
C235        C236   1.400       .  A
C235        H240   1.084       .  S
C236        C237   1.408       .  A
C237        C238   1.398       .  A
C237        F241   1.357       .  S
C238        H242   1.084       .  S
C243        C244   1.400       .  A
C243        C248   1.395       .  A
C243        H253   1.083       .  S
C244        C249   1.466       .  S
C244        C245   1.405       .  A
C245        C246   1.394       .  A
C245        F250   1.358       .  S
C246        C247   1.401       .  A
C246        H251   1.083       .  S
C247        C248   1.404       .  A
C248        F252   1.357       .  S
C249        C254   1.404       .  A
C249        C258   1.395       .  A
C254        C255   1.402       .  A
C254        F259   1.357       .  S
C255        C256   1.408       .  A
C255        H260   1.082       .  S
C256        C257   1.412       .  A
C257        C258   1.387       .  A
C257        F261   1.358       .  S
C258        H262   1.084       .  S
C263        C264   1.403       .  A
C263        C268   1.390       .  A
C263        H273   1.084       .  S
C264        C269   1.472       .  S
C264        C265   1.405       .  A
C265        C266   1.398       .  A
C265        F270   1.357       .  S
C266        C267   1.404       .  A
C266        H271   1.083       .  S
C267        C268   1.401       .  A
C268        F272   1.358       .  S
C269        C274   1.403       .  A
C269        C278   1.404       .  A
C274        C275   1.391       .  A
C274        F279   1.358       .  S
C275        C276   1.405       .  A
C275        H280   1.083       .  S
C276        C277   1.406       .  A
C277        C278   1.399       .  A
C277        F281   1.357       .  S
C278        H282   1.083       .  S
C283        C284   1.401       .  A
C283        C288   1.390       .  A
C283        H293   1.083       .  S
C284        C289   1.472       .  S
C284        C285   1.403       .  A
C285        C286   1.397       .  A
C285        F290   1.358       .  S
C286        C287   1.408       .  A
C286        H291   1.083       .  S
C287        C288   1.408       .  A
C288        F292   1.357       .  S
C289        C294   1.405       .  A
C289        C298   1.404       .  A
C294        C295   1.389       .  A
C294        F299   1.358       .  S
C295        C296   1.400       .  A
C295        H300   1.083       .  S
C296        C297   1.405       .  A
C297        C298   1.398       .  A
C297        F301   1.358       .  S
C298        H302   1.083       .  S
C303        H304   1.111       .  S
C303        C309   1.531       .  S
C303        C308   1.531       .  S
C303        C307   1.530       .  S
C305        H306   1.112       .  S
C305        C311   1.532       .  S
C305        C310   1.530       .  S
C305        C312   1.529       .  S
C307        C310   1.371       .  D
C307        C489   1.475       .  S
C308        C311   1.373       .  D
C308        C538   1.476       .  S
C309        C312   1.371       .  D
C309        C569   1.473       .  S
C310        C509   1.471       .  S
C311        C549   1.473       .  S
C312        C598   1.474       .  S
C313        H314   1.111       .  S
C313        C319   1.525       .  S
C313        C318   1.526       .  S
C313        C317   1.529       .  S
C315        H316   1.111       .  S
C315        C321   1.538       .  S
C315        C320   1.537       .  S
C315        C322   1.538       .  S
C317        C320   1.374       .  D
C317        C369   1.472       .  S
C318        C321   1.370       .  D
C318        C429   1.471       .  S
C319        C322   1.369       .  D
C319        C449   1.475       .  S
C320        C389   1.487       .  S
C321        C409   1.476       .  S
C322        C469   1.471       .  S
O323       Ni331   1.911       .  S
O323        C333   1.280       .  A
O324        C334   1.280       .  A
O325        C335   1.284       .  A
O326       Ni331   1.922   1_455  S
O326        C336   1.283       .  A
O327       Ni332   1.895       .  S
O327        C336   1.277       .  A
O328        C335   1.277       .  A
O329        C334   1.280       .  A
O330       Ni332   1.907   1_655  S
O330        C333   1.280       .  A
Ni331      Ni332   2.388   1_655  S
C333        C418   1.473       .  S
C334        C498   1.467       .  S
C335        C438   1.475       .  S
C336        C518   1.475       .  S
O337        C347   1.277       .  A
O338       Ni345   1.889   1_556  S
O338        C348   1.276       .  A
O339       Ni345   1.900   1_556  S
O339        C349   1.278       .  A
O340        C350   1.279       .  A
O341        C350   1.281       .  A
O342       Ni346   1.917       .  S
O342        C349   1.281       .  A
O343       Ni346   1.930       .  S
O343        C348   1.284       .  A
O344        C347   1.283       .  A
Ni345      Ni346   2.389   1_554  S
C347        C458   1.473       .  S
C348        C558   1.478       .  S
C349        C478   1.463       .  S
C350        C529   1.471       .  S
O351       Ni359   1.905       .  S
O351        C361   1.279       .  A
O352        C362   1.281       .  A
O353        C363   1.277       .  A
O354       Ni359   1.895   1_565  S
O354        C364   1.277       .  A
O355       Ni360   1.927       .  S
O355        C364   1.283       .  A
O356        C363   1.285       .  A
O357        C362   1.280       .  A
O358       Ni360   1.908   1_545  S
O358        C361   1.277       .  A
Ni359      Ni360   2.390   1_545  S
C361        C378   1.451       .  S
C362        C589   1.476       .  S
C363        C398   1.479       .  S
C364        C578   1.472       .  S
C365        C366   1.402       .  A
C365        C370   1.386       .  A
C365        H375   1.083       .  S
C366        C371   1.468       .  S
C366        C367   1.404       .  A
C367        C368   1.396       .  A
C367        F372   1.357       .  S
C368        C369   1.405       .  A
C368        H373   1.083       .  S
C369        C370   1.400       .  A
C370        F374   1.354       .  S
C371        C376   1.406       .  A
C371        C380   1.404       .  A
C376        C377   1.391       .  A
C376        F381   1.358       .  S
C377        C378   1.398       .  A
C377        H382   1.083       .  S
C378        C379   1.400       .  A
C379        C380   1.394       .  A
C379        F383   1.358       .  S
C380        H384   1.083       .  S
C385        C386   1.404       .  A
C385        C390   1.396       .  A
C385        H395   1.082       .  S
C386        C391   1.479       .  S
C386        C387   1.405       .  A
C387        C388   1.396       .  A
C387        F392   1.358       .  S
C388        C389   1.402       .  A
C388        H393   1.074       .  S
C389        C390   1.409       .  A
C390        F394   1.357       .  S
C391        C396   1.407       .  A
C391        C400   1.400       .  A
C396        C397   1.401       .  A
C396        F401   1.357       .  S
C397        C398   1.405       .  A
C397        H402   1.083       .  S
C398        C399   1.411       .  A
C399        C400   1.391       .  A
C399        F403   1.358       .  S
C400        H404   1.083       .  S
C405        C406   1.403       .  A
C405        C410   1.391       .  A
C405        H415   1.083       .  S
C406        C411   1.473       .  S
C406        C407   1.404       .  A
C407        C408   1.395       .  A
C407        F412   1.357       .  S
C408        C409   1.404       .  A
C408        H413   1.082       .  S
C409        C410   1.404       .  A
C410        F414   1.356       .  S
C411        C416   1.405       .  A
C411        C420   1.402       .  A
C416        C417   1.393       .  A
C416        F421   1.358       .  S
C417        C418   1.404       .  A
C417        H422   1.083       .  S
C418        C419   1.408       .  A
C419        C420   1.395       .  A
C419        F423   1.357       .  S
C420        H424   1.083       .  S
C425        C426   1.404       .  A
C425        C430   1.396       .  A
C425        H435   1.083       .  S
C426        C431   1.479       .  S
C426        C427   1.409       .  A
C427        C428   1.395       .  A
C427        F432   1.358       .  S
C428        C429   1.398       .  A
C428        H433   1.084       .  S
C429        C430   1.402       .  A
C430        F434   1.356       .  S
C431        C436   1.407       .  A
C431        C440   1.402       .  A
C436        C437   1.400       .  A
C436        F441   1.357       .  S
C437        C438   1.404       .  A
C437        H442   1.083       .  S
C438        C439   1.408       .  A
C439        C440   1.391       .  A
C439        F443   1.358       .  S
C440        H444   1.083       .  S
C445        C446   1.401       .  A
C445        C450   1.390       .  A
C445        H455   1.084       .  S
C446        C451   1.466       .  S
C446        C447   1.402       .  A
C447        C448   1.398       .  A
C447        F452   1.357       .  S
C448        C449   1.405       .  A
C448        H453   1.083       .  S
C449        C450   1.403       .  A
C450        F454   1.355       .  S
C451        C456   1.400       .  A
C451        C460   1.403       .  A
C456        C457   1.387       .  A
C456        F461   1.358       .  S
C457        C458   1.405       .  A
C457        H462   1.083       .  S
C458        C459   1.408       .  A
C459        C460   1.402       .  A
C459        F463   1.357       .  S
C460        H464   1.083       .  S
C465        C466   1.405       .  A
C465        C470   1.391       .  A
C465        H475   1.083       .  S
C466        C471   1.478       .  S
C466        C467   1.408       .  A
C467        C468   1.397       .  A
C467        F472   1.357       .  S
C468        C469   1.400       .  A
C468        H473   1.084       .  S
C469        C470   1.400       .  A
C470        F474   1.355       .  S
C471        C476   1.408       .  A
C471        C480   1.405       .  A
C476        C477   1.393       .  A
C476        F481   1.358       .  S
C477        C478   1.401       .  A
C477        H482   1.084       .  S
C478        C479   1.403       .  A
C479        C480   1.396       .  A
C479        F483   1.358       .  S
C480        H484   1.083       .  S
C485        C486   1.404       .  A
C485        C490   1.397       .  A
C485        H495   1.083       .  S
C486        C491   1.475       .  S
C486        C487   1.406       .  A
C487        C488   1.392       .  A
C487        F492   1.358       .  S
C488        C489   1.399       .  A
C488        H493   1.084       .  S
C489        C490   1.406       .  A
C490        F494   1.357       .  S
C491        C496   1.405       .  A
C491        C500   1.403       .  A
C496        C497   1.397       .  A
C496        F501   1.357       .  S
C497        C498   1.404       .  A
C497        H502   1.084       .  S
C498        C499   1.403       .  A
C499        C500   1.393       .  A
C499        F503   1.358       .  S
C500        H504   1.084       .  S
C505        C506   1.402       .  A
C505        C510   1.397       .  A
C505        H515   1.083       .  S
C506        C511   1.467       .  S
C506        C507   1.404       .  A
C507        C508   1.389       .  A
C507        F512   1.358       .  S
C508        C509   1.400       .  A
C508        H513   1.083       .  S
C509        C510   1.404       .  A
C510        F514   1.358       .  S
C511        C516   1.403       .  A
C511        C520   1.398       .  A
C516        C517   1.400       .  A
C516        F521   1.357       .  S
C517        C518   1.407       .  A
C517        H522   1.083       .  S
C518        C519   1.410       .  A
C519        C520   1.387       .  A
C519        F523   1.358       .  S
C520        H524   1.084       .  S
C525        C526   1.400       .  A
C525        C530   1.390       .  A
C525        H535   1.084       .  S
C526        C531   1.469       .  S
C526        C527   1.403       .  A
C527        C528   1.400       .  A
C527        F532   1.357       .  S
C528        C529   1.406       .  A
C528        H533   1.083       .  S
C529        C530   1.406       .  A
C530        F534   1.358       .  S
C531        C536   1.404       .  A
C531        C540   1.401       .  A
C536        C537   1.390       .  A
C536        F541   1.358       .  S
C537        C538   1.400       .  A
C537        H542   1.084       .  S
C538        C539   1.408       .  A
C539        C540   1.398       .  A
C539        F543   1.357       .  S
C540        H544   1.084       .  S
C545        C546   1.400       .  A
C545        C550   1.395       .  A
C545        H555   1.083       .  S
C546        C551   1.465       .  S
C546        C547   1.404       .  A
C547        C548   1.394       .  A
C547        F552   1.358       .  S
C548        C549   1.402       .  A
C548        H553   1.083       .  S
C549        C550   1.404       .  A
C550        F554   1.357       .  S
C551        C556   1.403       .  A
C551        C560   1.395       .  A
C556        C557   1.402       .  A
C556        F561   1.357       .  S
C557        C558   1.408       .  A
C557        H562   1.083       .  S
C558        C559   1.412       .  A
C559        C560   1.387       .  A
C559        F563   1.358       .  S
C560        H564   1.084       .  S
C565        C566   1.403       .  A
C565        C570   1.390       .  A
C565        H575   1.084       .  S
C566        C571   1.472       .  S
C566        C567   1.404       .  A
C567        C568   1.398       .  A
C567        F572   1.357       .  S
C568        C569   1.404       .  A
C568        H573   1.083       .  S
C569        C570   1.401       .  A
C570        F574   1.358       .  S
C571        C576   1.403       .  A
C571        C580   1.404       .  A
C576        C577   1.391       .  A
C576        F581   1.358       .  S
C577        C578   1.405       .  A
C577        H582   1.083       .  S
C578        C579   1.406       .  A
C579        C580   1.399       .  A
C579        F583   1.357       .  S
C580        H584   1.083       .  S
C585        C586   1.401       .  A
C585        C590   1.390       .  A
C585        H595   1.083       .  S
C586        C591   1.472       .  S
C586        C587   1.403       .  A
C587        C588   1.397       .  A
C587        F592   1.358       .  S
C588        C589   1.409       .  A
C588        H593   1.083       .  S
C589        C590   1.408       .  A
C590        F594   1.357       .  S
C591        C596   1.405       .  A
C591        C600   1.403       .  A
C596        C597   1.389       .  A
C596        F601   1.358       .  S
C597        C598   1.400       .  A
C597        H602   1.083       .  S
C598        C599   1.405       .  A
C599        C600   1.398       .  A
C599        F603   1.357       .  S
C600        H604   1.083       .  S
