geometry optimzed in LAMMPS
_audit_creation_date              2020-11-30 
_audit_creation_method            'lammps2cif' 
_symmetry_space_group_name_H-M    'P1' 
_symmetry_Int_Tables_number       1 
_symmetry_cell_setting            triclinic 
loop_ 
_symmetry_equiv_pos_as_xyz 
  x,y,z 
_cell_length_a                    57.61205338 
_cell_length_b                    57.62636936194127 
_cell_length_c                    57.62359259769586 
_cell_angle_alpha                 90.02486152144411 
_cell_angle_beta                  90.02638597575043 
_cell_angle_gamma                 89.96271437100799 
loop_ 
_atom_site_label 
_atom_site_type_symbol 
_atom_site_fract_x 
_atom_site_fract_y 
_atom_site_fract_z 
_atom_site_charge 
O1          O  0.12444906  0.09305661  0.39343797    -0.71200
O2          O  0.12659503  0.15878578  0.39606454    -0.71500
O3          O  0.09237878  0.12691249  0.39579585    -0.71300
O4          O  0.15832427  0.12474607  0.39357430    -0.71300
O5          O  0.15694094  0.13043211  0.35629670    -0.71300
O6          O  0.09146637  0.12474441  0.35813166    -0.71300
O7          O  0.12118593  0.16027871  0.35874723    -0.71200
O8          O  0.12687972  0.09453399  0.35581584    -0.71400
V9          V  0.12538111  0.12591415  0.39405199     1.35200
V10         V  0.12417243  0.12743156  0.35791868     1.35200
C11         C  0.12601609  0.08260747  0.37423397     0.78000
C12         C  0.12360296  0.17069128  0.37789813     0.78100
C13         C  0.08074790  0.12571065  0.37720305     0.77900
C14         C  0.16878974  0.12795140  0.37458256     0.77900
O15         O  0.12782497  0.84393579  0.39724970    -0.71200
O16         O  0.12868181  0.90979140  0.39612694    -0.71500
O17         O  0.09508562  0.87749802  0.39763338    -0.71300
O18         O  0.16105235  0.87605629  0.39568029    -0.71300
O19         O  0.15979005  0.87632717  0.35796298    -0.71300
O20         O  0.09399188  0.87653956  0.35993472    -0.71300
O21         O  0.12710666  0.90929421  0.35843834    -0.71200
O22         O  0.12651442  0.84331733  0.35953869    -0.71400
V23         V  0.12808817  0.87683784  0.39594408     1.35200
V24         V  0.12689187  0.87634081  0.35970734     1.35200
C25         C  0.12721004  0.83245994  0.37858582     0.78000
C26         C  0.12808817  0.92073289  0.37711881     0.78100
C27         C  0.08335135  0.87719345  0.37906902     0.77900
C28         C  0.17157451  0.87611786  0.37645905     0.77900
O29         O  0.87378481  0.16115776  0.38656802    -0.71200
O30         O  0.87493808  0.09534956  0.38910156    -0.71500
O31         O  0.90733535  0.12880697  0.38902399    -0.71300
O32         O  0.84149787  0.12791100  0.38675357    -0.71300
O33         O  0.84271995  0.12631020  0.34907372    -0.71300
O34         O  0.90864728  0.12690946  0.35136668    -0.71300
O35         O  0.87586116  0.09381612  0.35141967    -0.71200
O36         O  0.87587312  0.15976212  0.34891881    -0.71400
V37         V  0.87442512  0.12825612  0.38711698     1.35200
V38         V  0.87571247  0.12677699  0.35091287     1.35200
C39         C  0.87489653  0.17162826  0.36735909     0.78000
C40         C  0.87552950  0.08339907  0.37069707     0.78100
C41         C  0.91916406  0.12794585  0.37059586     0.77900
C42         C  0.83093658  0.12681956  0.36758275     0.77900
O43         O  0.91069015  0.87819337  0.39696479    -0.71200
O44         O  0.84482465  0.87967234  0.39868389    -0.71500
O45         O  0.87728123  0.84575727  0.40016062    -0.71300
O46         O  0.87836784  0.91165821  0.39539168    -0.71300
O47         O  0.87729287  0.90897094  0.35777908    -0.71300
O48         O  0.87574456  0.84324581  0.36254924    -0.71300
O49         O  0.84381140  0.87653922  0.36108224    -0.71200
O50         O  0.90970522  0.87539813  0.35935540    -0.71400
V51         V  0.87777373  0.87873439  0.39707456     1.35200
V52         V  0.87672238  0.87611317  0.36092728     1.35200
C53         C  0.92138667  0.87674646  0.37789858     0.78000
C54         C  0.83317451  0.87821040  0.38016766     0.78100
C55         C  0.87593389  0.83333496  0.38210190     0.77900
C56         C  0.87792863  0.92148850  0.37579279     0.77900
O57         O  0.14398359  0.40898009  0.37748822    -0.71200
O58         O  0.14248787  0.34301575  0.38099656    -0.71500
O59         O  0.14280086  0.37406653  0.34618880    -0.71300
O60         O  0.14384865  0.37749395  0.41200801    -0.71300
O61         O  0.10627206  0.37408707  0.41246766    -0.71300
O62         O  0.10551308  0.37985576  0.34669534    -0.71300
O63         O  0.10501486  0.34409297  0.37664053    -0.71200
O64         O  0.10658598  0.40962017  0.38244587    -0.71400
V65         V  0.14264604  0.37595825  0.37913542     1.35200
V66         V  0.10650601  0.37688375  0.37956039     1.35200
C67         C  0.12547335  0.42050433  0.38023047     0.78000
C68         C  0.12343942  0.33237387  0.37876251     0.78100
C69         C  0.12400191  0.37699882  0.33524608     0.77900
C70         C  0.12524573  0.37544042  0.42344075     0.77900
O71         O  0.14597843  0.40613290  0.63092696    -0.71200
O72         O  0.14514038  0.34020151  0.62669379    -0.71500
O73         O  0.14459131  0.37507075  0.59604135    -0.71300
O74         O  0.14662571  0.37085373  0.66182007    -0.71300
O75         O  0.10917323  0.37536679  0.66302716    -0.71300
O76         O  0.10700280  0.37199854  0.59720297    -0.71300
O77         O  0.10777834  0.34070531  0.63199816    -0.71200
O78         O  0.10831786  0.40646407  0.62865385    -0.71400
V79         V  0.14492010  0.37311560  0.62892197     1.35200
V80         V  0.10875304  0.37359578  0.63014985     1.35200
C81         C  0.12720873  0.41752011  0.62995722     0.78000
C82         C  0.12631956  0.32928561  0.62935816     0.78100
C83         C  0.12546820  0.37351418  0.58541894     0.77900
C84         C  0.12823417  0.37300074  0.67359255     0.77900
O85         O  0.14701386  0.62513109  0.41062010    -0.71200
O86         O  0.14510855  0.62733550  0.34471987    -0.71500
O87         O  0.14628057  0.65936748  0.37908283    -0.71300
O88         O  0.14583239  0.59348977  0.37651903    -0.71300
O89         O  0.10818992  0.59362581  0.37911732    -0.71300
O90         O  0.10854890  0.65955039  0.37826640    -0.71300
O91         O  0.10739457  0.62656043  0.34580437    -0.71200
O92         O  0.10933622  0.62680200  0.41171918    -0.71400
V93         V  0.14533050  0.62637428  0.37772949     1.35200
V94         V  0.10909320  0.62662076  0.37872224     1.35200
C95         C  0.12849671  0.62563570  0.42235784     0.78000
C96         C  0.12591717  0.62710537  0.33407714     0.78100
C97         C  0.12745592  0.67063371  0.37872797     0.77900
C98         C  0.12698370  0.58237089  0.37782688     0.77900
O99         O  0.10951200  0.59071954  0.62769904    -0.71200
O100        O  0.10902930  0.65680888  0.62832634    -0.71500
O101        O  0.10983606  0.62417425  0.59526075    -0.71300
O102        O  0.10848223  0.62302261  0.66102286    -0.71300
O103        O  0.14621692  0.62381256  0.66180563    -0.71300
O104        O  0.14755879  0.62446148  0.59579811    -0.71300
O105        O  0.14675051  0.65699402  0.62956727    -0.71200
O106        O  0.14722800  0.59109895  0.62847194    -0.71400
V107        V  0.10995095  0.62373534  0.62810387     1.35200
V108        V  0.14620524  0.62406630  0.62885733     1.35200
C109        C  0.12848960  0.57969566  0.62808574     0.78000
C110        C  0.12784718  0.66808098  0.62915253     0.78100
C111        C  0.12882833  0.62438917  0.58433289     0.77900
C112        C  0.12711730  0.62316819  0.67255512     0.77900
O113        O  0.62309328  0.14317694  0.40013562    -0.71200
O114        O  0.62713394  0.14563717  0.33451375    -0.71500
O115        O  0.59202153  0.14467535  0.36557535    -0.71300
O116        O  0.65787630  0.14402470  0.36951997    -0.71300
O117        O  0.65771143  0.10666311  0.36428662    -0.71300
O118        O  0.59171952  0.10699646  0.36728283    -0.71300
O119        O  0.62323535  0.10815656  0.33288680    -0.71200
O120        O  0.62606080  0.10559215  0.39893091    -0.71400
V121        V  0.62498366  0.14367144  0.36735156     1.35200
V122        V  0.62469271  0.10751467  0.36588975     1.35200
C123        C  0.62454201  0.12405849  0.41074036     0.78000
C124        C  0.62553029  0.12734665  0.32250750     0.78100
C125        C  0.58064859  0.12593981  0.36654582     0.77900
C126        C  0.66898850  0.12527377  0.36705650     0.77900
O127        O  0.62799974  0.14009121  0.58410361    -0.71200
O128        O  0.62269806  0.13925822  0.64989320    -0.71500
O129        O  0.65839843  0.14014645  0.61985943    -0.71300
O130        O  0.59269959  0.13928790  0.61450555    -0.71300
O131        O  0.59309810  0.10168349  0.61749856    -0.71300
O132        O  0.65903096  0.10268865  0.61537054    -0.71300
O133        O  0.62725814  0.10180448  0.64949900    -0.71200
O134        O  0.62515012  0.10247659  0.58369402    -0.71400
V135        V  0.62550693  0.13902452  0.61705034     1.35200
V136        V  0.62610227  0.10284636  0.61656039     1.35200
C137        C  0.62676880  0.12136382  0.57269891     0.78000
C138        C  0.62462994  0.12037351  0.66086733     0.78100
C139        C  0.66989483  0.12156195  0.61783297     0.77900
C140        C  0.58169935  0.12036755  0.61580850     0.77900
O141        O  0.34169550  0.11205973  0.37418266    -0.71200
O142        O  0.40738640  0.11217190  0.36975399    -0.71500
O143        O  0.37651023  0.11221448  0.40468244    -0.71300
O144        O  0.37209207  0.11200172  0.33900259    -0.71300
O145        O  0.37568765  0.14955187  0.33863366    -0.71300
O146        O  0.37327370  0.14979930  0.40473197    -0.71300
O147        O  0.40744645  0.14977977  0.37272195    -0.71200
O148        O  0.34143334  0.14959121  0.37030794    -0.71400
V149        V  0.37448498  0.11282772  0.37186080     1.35200
V150        V  0.37446003  0.14902159  0.37164322     1.35200
C151        C  0.33039929  0.13075593  0.37244783     0.78000
C152        C  0.41862577  0.13095868  0.37102500     0.78100
C153        C  0.37479816  0.13095056  0.41592324     0.77900
C154        C  0.37349662  0.13069785  0.32763383     0.77900
O155        O  0.34195126  0.10412347  0.62383126    -0.71200
O156        O  0.40777424  0.10085825  0.61958566    -0.71500
O157        O  0.37661715  0.10171196  0.65444898    -0.71300
O158        O  0.37289526  0.10331237  0.58858197    -0.71300
O159        O  0.37539762  0.14093763  0.58940550    -0.71300
O160        O  0.37807906  0.13940051  0.65526373    -0.71300
O161        O  0.40954230  0.13851420  0.62098296    -0.71200
O162        O  0.34382808  0.14180787  0.62342530    -0.71400
V163        V  0.37486510  0.10321883  0.62158142     1.35200
V164        V  0.37667788  0.13941669  0.62228523     1.35200
C165        C  0.33175444  0.12353563  0.62424600     0.78000
C166        C  0.41982600  0.11919496  0.61973574     0.78100
C167        C  0.37767765  0.12030672  0.66603771     0.77900
C168        C  0.37363491  0.12242713  0.57780075     0.77900
O169        O  0.89114524  0.62324169  0.41342903    -0.71200
O170        O  0.89102494  0.63239337  0.34795039    -0.71500
O171        O  0.89041989  0.66042544  0.38551345    -0.71300
O172        O  0.89191625  0.59510194  0.37618435    -0.71300
O173        O  0.85435307  0.59393038  0.37952299    -0.71300
O174        O  0.85293505  0.65997359  0.38126562    -0.71300
O175        O  0.85362697  0.62742513  0.34768236    -0.71200
O176        O  0.85351469  0.62597376  0.41357577    -0.71400
V177        V  0.89045534  0.62777413  0.38074571     1.35200
V178        V  0.85428656  0.62690673  0.38058000     1.35200
C179        C  0.87231267  0.62363405  0.42468275     0.78000
C180        C  0.87230012  0.63043994  0.33662592     0.78100
C181        C  0.87145438  0.67138027  0.38428203     0.77900
C182        C  0.87337730  0.58335994  0.37668542     0.77900
O183        O  0.89683199  0.61820649  0.59702761    -0.71200
O184        O  0.89946122  0.62111435  0.66280661    -0.71500
O185        O  0.89989446  0.58651562  0.63097584    -0.71300
O186        O  0.89629286  0.65250136  0.62851197    -0.71300
O187        O  0.85913117  0.65058832  0.63470646    -0.71300
O188        O  0.86228345  0.58505185  0.62842667    -0.71300
O189        O  0.86232236  0.61459528  0.66424312    -0.71200
O190        O  0.85920356  0.62052654  0.59854782    -0.71400
V191        V  0.89747292  0.61955170  0.62989767     1.35200
V192        V  0.86139373  0.61776048  0.63144031     1.35200
C193        C  0.87757484  0.61935569  0.58657588     0.78000
C194        C  0.88135887  0.61765698  0.67469008     0.78100
C195        C  0.88154699  0.57457191  0.62925609     0.77900
C196        C  0.87717832  0.66274529  0.63193235     0.77900
O197        O  0.85637602  0.37917588  0.40209729    -0.71200
O198        O  0.85365797  0.37456240  0.33642622    -0.71500
O199        O  0.85597158  0.34416940  0.37171410    -0.71300
O200        O  0.85414978  0.40995289  0.36705638    -0.71300
O201        O  0.89180811  0.41082043  0.36923945    -0.71300
O202        O  0.89323060  0.34495555  0.36577883    -0.71300
O203        O  0.89101489  0.37959895  0.33476507    -0.71200
O204        O  0.89397006  0.37625214  0.40056316    -0.71400
V205        V  0.85570809  0.37702198  0.36926432     1.35200
V206        V  0.89184220  0.37789289  0.36765073     1.35200
C207        C  0.87560286  0.37760094  0.41251650     0.78000
C208        C  0.87187330  0.37685836  0.32441909     0.78100
C209        C  0.87486415  0.33338890  0.36886570     0.77900
C210        C  0.87273966  0.42160265  0.36798303     0.77900
O211        O  0.89919051  0.40002288  0.62082766    -0.71200
O212        O  0.89322100  0.33457407  0.61415740    -0.71500
O213        O  0.89543336  0.37049338  0.58486603    -0.71300
O214        O  0.89694052  0.36392074  0.65051136    -0.71300
O215        O  0.85991682  0.37114399  0.65173971    -0.71300
O216        O  0.85770978  0.37029614  0.58591001    -0.71300
O217        O  0.85596898  0.33757111  0.61938187    -0.71200
O218        O  0.86165794  0.40323612  0.61854387    -0.71400
V219        V  0.89552944  0.36729046  0.61764952     1.35200
V220        V  0.85949101  0.37043545  0.61884414     1.35200
C221        C  0.88131885  0.41278187  0.62028071     0.78000
C222        C  0.87362927  0.32493943  0.61613628     0.78100
C223        C  0.87626613  0.37103106  0.57421812     0.77900
C224        C  0.87877567  0.36747798  0.66230315     0.77900
O225        O  0.34542605  0.85827766  0.37380541    -0.71200
O226        O  0.41113556  0.86216425  0.37457091    -0.71500
O227        O  0.37774396  0.86013655  0.40704377    -0.71300
O228        O  0.37917576  0.86045786  0.34109606    -0.71300
O229        O  0.37692029  0.89812722  0.34130483    -0.71300
O230        O  0.37501155  0.89776037  0.40717235    -0.71300
O231        O  0.40907763  0.89982965  0.37511272    -0.71200
O232        O  0.34319494  0.89594482  0.37300930    -0.71400
V233        V  0.37829094  0.86099453  0.37410366     1.35200
V234        V  0.37611302  0.89718788  0.37418629     1.35200
C235        C  0.33317689  0.87645892  0.37330726     0.78000
C236        C  0.42128462  0.88156874  0.37487913     0.78100
C237        C  0.37601540  0.87887858  0.41830070     0.77900
C238        C  0.37853652  0.87940615  0.33004553     0.77900
O239        O  0.34304601  0.85420910  0.62090832    -0.71200
O240        O  0.40864362  0.85213106  0.62640788    -0.71500
O241        O  0.37288353  0.85247742  0.65676544    -0.71300
O242        O  0.37844221  0.85401837  0.59096225    -0.71300
O243        O  0.37525844  0.89159777  0.59192424    -0.71300
O244        O  0.37873027  0.88972621  0.65779560    -0.71300
O245        O  0.40977834  0.88970305  0.62318445    -0.71200
O246        O  0.34392996  0.89149095  0.62667206    -0.71400
V247        V  0.37580414  0.85386007  0.62382970     1.35200
V248        V  0.37687958  0.88998088  0.62486390     1.35200
C249        C  0.33232621  0.87314444  0.62350787     0.78000
C250        C  0.42040428  0.87058356  0.62483609     0.78100
C251        C  0.37558876  0.87085654  0.66848790     0.77900
C252        C  0.37698070  0.87310639  0.58022977     0.77900
O253        O  0.59325725  0.85232887  0.63044630    -0.71200
O254        O  0.65914019  0.85185511  0.62723247    -0.71500
O255        O  0.62781611  0.84972417  0.66197539    -0.71300
O256        O  0.62468998  0.85454732  0.59610520    -0.71300
O257        O  0.62871834  0.89195022  0.59882630    -0.71300
O258        O  0.62393730  0.88716471  0.66445211    -0.71300
O259        O  0.65946421  0.88894656  0.63411265    -0.71200
O260        O  0.59364498  0.89003509  0.62938255    -0.71400
V261        V  0.62623046  0.85278010  0.62902240     1.35200
V262        V  0.62650524  0.88885229  0.63164827     1.35200
C263        C  0.58224824  0.87129684  0.62966118     0.78000
C264        C  0.67050264  0.87026398  0.63070646     0.78100
C265        C  0.62542989  0.86767775  0.67439468     0.77900
C266        C  0.62668627  0.87405599  0.58626463     0.77900
O267        O  0.62763052  0.89834162  0.41360617    -0.71200
O268        O  0.62662102  0.90066015  0.34758332    -0.71500
O269        O  0.59426857  0.89938095  0.38086409    -0.71300
O270        O  0.66021067  0.89969416  0.38049492    -0.71300
O271        O  0.66045518  0.86197556  0.37944276    -0.71300
O272        O  0.59452645  0.86172398  0.37867997    -0.71300
O273        O  0.62811051  0.86297940  0.34630288    -0.71200
O274        O  0.62711168  0.86065782  0.41215015    -0.71400
V275        V  0.62722283  0.89879242  0.38058883     1.35200
V276        V  0.62751299  0.86256993  0.37921300     1.35200
C277        C  0.62741495  0.87908012  0.42408888     0.78000
C278        C  0.62731400  0.88217759  0.33577127     0.78100
C279        C  0.58320038  0.88051828  0.37953743     0.77900
C280        C  0.67150513  0.88088283  0.38007071     0.77900
O281        O  0.12375967  0.84083819  0.61003386    -0.71200
O282        O  0.12822719  0.90642696  0.60825439    -0.71500
O283        O  0.15895185  0.87128390  0.60800032    -0.71300
O284        O  0.09315588  0.87583307  0.61048688    -0.71300
O285        O  0.09459536  0.87343429  0.64810964    -0.71300
O286        O  0.16033977  0.87604258  0.64541286    -0.71300
O287        O  0.12638373  0.90749134  0.64592882    -0.71200
O288        O  0.12904764  0.84153245  0.64738445    -0.71400
V289        V  0.12605158  0.87362255  0.60988221     1.35200
V290        V  0.12751769  0.87455586  0.64603710     1.35200
C291        C  0.12637621  0.82999588  0.62889180     0.78000
C292        C  0.12764700  0.91812628  0.62679335     0.78100
C293        C  0.17080040  0.87370087  0.62631115     0.77900
C294        C  0.08267732  0.87488931  0.62973421     0.77900
O295        O  0.15997251  0.12560099  0.60911520    -0.71200
O296        O  0.09418962  0.12194901  0.60544486    -0.71500
O297        O  0.12569994  0.15656149  0.60715418    -0.71300
O298        O  0.12881829  0.09076545  0.60749352    -0.71300
O299        O  0.12641152  0.09095237  0.64514658    -0.71300
O300        O  0.12352394  0.15666967  0.64483280    -0.71300
O301        O  0.09215864  0.12239495  0.64310601    -0.71200
O302        O  0.15799528  0.12489200  0.64679224    -0.71400
V303        V  0.12709381  0.12369781  0.60803112     1.35200
V304        V  0.12507053  0.12376077  0.64423424     1.35200
C305        C  0.17013326  0.12571767  0.62853608     0.78000
C306        C  0.08198989  0.12160201  0.62367109     0.78100
C307        C  0.12432901  0.16775835  0.62595284     0.77900
C308        C  0.12811008  0.07970816  0.62641240     0.77900
O309        O  0.90893448  0.11802685  0.59631717    -0.71200
O310        O  0.84289453  0.11811127  0.59611024    -0.71500
O311        O  0.87604918  0.15115595  0.59448725    -0.71300
O312        O  0.87572366  0.08521201  0.59796830    -0.71300
O313        O  0.87567419  0.08720218  0.63563236    -0.71300
O314        O  0.87531562  0.15304866  0.63216277    -0.71300
O315        O  0.84274985  0.12046476  0.63377441    -0.71200
O316        O  0.90867041  0.12022007  0.63397092    -0.71400
V317        V  0.87590411  0.11818207  0.59694266     1.35200
V318        V  0.87568123  0.12014862  0.63314083     1.35200
C319        C  0.92001917  0.11911989  0.61522702     0.78000
C320        C  0.83165579  0.11947132  0.61490596     0.78100
C321        C  0.87530905  0.16326875  0.61278684     0.77900
C322        C  0.87551575  0.07500432  0.61738953     0.77900
O323        O  0.84338079  0.87059696  0.64769186    -0.71200
O324        O  0.90939352  0.86917859  0.64832723    -0.71500
O325        O  0.87694324  0.90269002  0.64675245    -0.71300
O326        O  0.87534123  0.83668079  0.64930583    -0.71300
O327        O  0.87961949  0.83540023  0.61185125    -0.71300
O328        O  0.87379794  0.90108030  0.60919650    -0.71300
O329        O  0.90946215  0.87111118  0.61065904    -0.71200
O330        O  0.84377333  0.86513405  0.61036082    -0.71400
V331        V  0.87632150  0.86970799  0.64734955     1.35200
V332        V  0.87664684  0.86822049  0.61120246     1.35200
C333        C  0.83239542  0.86752262  0.62896560     0.78000
C334        C  0.92064088  0.87073139  0.62953901     0.78100
C335        C  0.87497980  0.91309863  0.62753369     0.77900
C336        C  0.87759707  0.82483663  0.63096199     0.77900
O337        O  0.34957922  0.12651923  0.15523292    -0.71200
O338        O  0.34769741  0.12756007  0.08928008    -0.71500
O339        O  0.35041772  0.09432446  0.12157812    -0.71300
O340        O  0.34690329  0.16014018  0.12267722    -0.71300
O341        O  0.38459661  0.16192264  0.12176920    -0.71300
O342        O  0.38810489  0.09623636  0.12120641    -0.71300
O343        O  0.38538429  0.12918379  0.08836762    -0.71200
O344        O  0.38720217  0.12935630  0.15421686    -0.71400
V345        V  0.34937014  0.12719234  0.12219985     1.35200
V346        V  0.38557762  0.12909978  0.12134592     1.35200
C347        C  0.36869963  0.12811330  0.16588551     0.78000
C348        C  0.36625762  0.12833366  0.07763715     0.78100
C349        C  0.36984227  0.08413217  0.12118573     0.77900
C350        C  0.36524115  0.17216573  0.12270452     0.77900
O351        O  0.35371225  0.08858299  0.87263484    -0.71200
O352        O  0.35177312  0.15440674  0.86900850    -0.71500
O353        O  0.35449350  0.11958085  0.83794704    -0.71300
O354        O  0.35104498  0.12325013  0.90381361    -0.71300
O355        O  0.38873762  0.12291638  0.90553146    -0.71300
O356        O  0.39206026  0.12276807  0.83983594    -0.71300
O357        O  0.38932150  0.15543403  0.87269957    -0.71200
O358        O  0.39142867  0.08964738  0.87303010    -0.71400
V359        V  0.35346131  0.12147175  0.87087722     1.35200
V360        V  0.38965151  0.12260836  0.87269996     1.35200
C361        C  0.37287574  0.07793350  0.87329592     0.78000
C362        C  0.37027143  0.16607637  0.87071555     0.78100
C363        C  0.37384680  0.12107937  0.82775526     0.77900
C364        C  0.36940557  0.12364603  0.91584121     0.77900
O365        O  0.35520470  0.83836714  0.87442840    -0.71200
O366        O  0.35362064  0.90431049  0.87413129    -0.71500
O367        O  0.35517859  0.87087573  0.84134326    -0.71300
O368        O  0.35368930  0.87160742  0.90738412    -0.71300
O369        O  0.39140450  0.87242302  0.90806823    -0.71300
O370        O  0.39286934  0.87241512  0.84224404    -0.71300
O371        O  0.39132087  0.90520189  0.87528388    -0.71200
O372        O  0.39291532  0.83922603  0.87560644    -0.71400
V373        V  0.35515035  0.87132266  0.87435002     1.35200
V374        V  0.39138712  0.87224644  0.87522338     1.35200
C375        C  0.37429666  0.82761416  0.87519427     0.78000
C376        C  0.37221209  0.91595472  0.87486647     0.78100
C377        C  0.37427804  0.87167246  0.83059761     0.77900
C378        C  0.37235993  0.87226875  0.91890978     0.77900
O379        O  0.39507297  0.91107853  0.12485001    -0.71200
O380        O  0.39264600  0.84521090  0.12160944    -0.71500
O381        O  0.39187432  0.87965018  0.09062862    -0.71300
O382        O  0.39586604  0.87654136  0.15631860    -0.71300
O383        O  0.35867874  0.88263584  0.15843211    -0.71300
O384        O  0.35433220  0.87652278  0.09290174    -0.71300
O385        O  0.35561684  0.84648785  0.12876335    -0.71200
O386        O  0.35739751  0.91205054  0.12272713    -0.71400
V387        V  0.39322328  0.87813089  0.12344345     1.35200
V388        V  0.35715175  0.87934634  0.12568158     1.35200
C389        C  0.37651462  0.92273158  0.12347108     0.78000
C390        C  0.37374046  0.83466345  0.12508671     0.78100
C391        C  0.37245112  0.87792244  0.08059732     0.77900
C392        C  0.37800687  0.88019710  0.16851734     0.77900
O393        O  0.86621541  0.35819010  0.15135718    -0.71200
O394        O  0.87045271  0.35817249  0.08553499    -0.71500
O395        O  0.90132754  0.35605336  0.12038303    -0.71300
O396        O  0.83557296  0.36038493  0.11618868    -0.80900
O397        O  0.83793258  0.39780780  0.12039036    -0.71300
O398        O  0.90361797  0.39358180  0.11725368    -0.71300
O399        O  0.86940331  0.39588002  0.08559476    -0.71200
O400        O  0.87259472  0.39537396  0.15154444    -0.71400
V401        V  0.86844152  0.35887490  0.11839817     1.35200
V402        V  0.87079032  0.39498346  0.11863978     1.35200
C403        C  0.86948124  0.37672343  0.16262963     0.78000
C404        C  0.87015197  0.37701614  0.07434586     0.78100
C405        C  0.91364702  0.37417240  0.11904768     0.77900
C406        C  0.82559719  0.37981591  0.11823957     0.77900
O407        O  0.91125208  0.39039906  0.86971140    -0.71200
O408        O  0.84558863  0.38697442  0.86574191    -0.71500
O409        O  0.87653774  0.38933985  0.90077932    -0.71300
O410        O  0.87999450  0.38798301  0.83492303    -0.71300
O411        O  0.88224905  0.35033162  0.83578993    -0.71300
O412        O  0.87858567  0.35168815  0.90168871    -0.71300
O413        O  0.84736755  0.34931059  0.86723350    -0.71200
O414        O  0.91318402  0.35273302  0.87056663    -0.71400
V415        V  0.87841434  0.38793092  0.86783849     1.35200
V416        V  0.88029743  0.35173739  0.86875817     1.35200
C417        C  0.92336496  0.37213985  0.87088471     0.78000
C418        C  0.83534011  0.36762392  0.86584436     0.78100
C419        C  0.87698928  0.37075620  0.91242789     0.77900
C420        C  0.88156301  0.36894180  0.82417644     0.77900
O421        O  0.08669134  0.35482876  0.12861705    -0.71200
O422        O  0.15265479  0.35596944  0.13085867    -0.71500
O423        O  0.11901528  0.35583679  0.16260059    -0.71300
O424        O  0.12068749  0.35495356  0.09663419    -0.71300
O425        O  0.11931388  0.39264787  0.09616209    -0.71300
O426        O  0.11848011  0.39356438  0.16204460    -0.71300
O427        O  0.15195306  0.39366488  0.12927218    -0.71200
O428        O  0.08617522  0.39254864  0.12874435    -0.71400
V429        V  0.11971003  0.35611287  0.12963693     1.35200
V430        V  0.11902221  0.39235767  0.12908818     1.35200
C431        C  0.07525134  0.37356035  0.12837384     0.78000
C432        C  0.16345820  0.37503805  0.13043838     0.78100
C433        C  0.11861331  0.37486141  0.17349227     0.77900
C434        C  0.12020502  0.37368614  0.08520339     0.77900
O435        O  0.16143728  0.39673199  0.87797670    -0.71200
O436        O  0.09546355  0.39456575  0.88002177    -0.71500
O437        O  0.12921558  0.39615273  0.91212156    -0.71300
O438        O  0.12714706  0.39517462  0.84620895    -0.71300
O439        O  0.13212078  0.35777533  0.84675019    -0.71300
O440        O  0.12755355  0.35846291  0.91249768    -0.71300
O441        O  0.09690610  0.35694534  0.87750408    -0.71200
O442        O  0.16256499  0.35925237  0.88215427    -0.71400
V443        V  0.12840979  0.39498416  0.87912428     1.35200
V444        V  0.12975050  0.35881091  0.87967115     1.35200
C445        C  0.17317594  0.37832715  0.88036075     0.78000
C446        C  0.08500258  0.37535825  0.87855857     0.78100
C447        C  0.12801296  0.37741597  0.92349637     0.77900
C448        C  0.12961215  0.37631276  0.83530149     0.77900
O449        O  0.60391196  0.85038003  0.13179422    -0.71200
O450        O  0.60771549  0.91593629  0.12742174    -0.71500
O451        O  0.60618854  0.88088918  0.09695502    -0.71300
O452        O  0.60547100  0.88568398  0.16265662    -0.71300
O453        O  0.64310706  0.88279792  0.16318220    -0.71300
O454        O  0.64387217  0.87896590  0.09739591    -0.71300
O455        O  0.64538499  0.91400869  0.12834597    -0.71200
O456        O  0.64159402  0.84824235  0.13257090    -0.71400
V457        V  0.60656333  0.88318110  0.12975112     1.35200
V458        V  0.64276805  0.88109594  0.13032805     1.35200
C459        C  0.62212034  0.83819665  0.13292261     0.78000
C460        C  0.62712029  0.92612868  0.12711684     0.78100
C461        C  0.62510858  0.87910452  0.08602346     0.77900
C462        C  0.62418974  0.88472056  0.17406430     0.77900
O463        O  0.64183484  0.86762770  0.84680147    -0.71200
O464        O  0.64408576  0.87152491  0.91255049    -0.71500
O465        O  0.64328122  0.83689753  0.88131735    -0.71300
O466        O  0.64249173  0.90279629  0.87782316    -0.71300
O467        O  0.60479388  0.90247650  0.87910746    -0.71300
O468        O  0.60558537  0.83661589  0.88307126    -0.71300
O469        O  0.60637560  0.87138726  0.91383623    -0.71200
O470        O  0.60411604  0.86777385  0.84796982    -0.71400
V471        V  0.64218215  0.86978214  0.87966670     1.35200
V472        V  0.60594670  0.86955941  0.88094148     1.35200
C473        C  0.62263951  0.86684185  0.83623566     0.78000
C474        C  0.62561168  0.87183385  0.92436677     0.78100
C475        C  0.62457070  0.82559743  0.88285444     0.77900
C476        C  0.62350450  0.91384624  0.87786320     0.77900
O477        O  0.60765260  0.08759871  0.86723242    -0.71200
O478        O  0.60995322  0.15363105  0.86771141    -0.71500
O479        O  0.60735632  0.12116232  0.83437910    -0.71300
O480        O  0.61016642  0.12042967  0.90023276    -0.71300
O481        O  0.64779063  0.12269904  0.89854639    -0.71300
O482        O  0.64470141  0.11588973  0.83298455    -0.71300
O483        O  0.64723402  0.15227827  0.86210499    -0.71200
O484        O  0.64532247  0.08665535  0.86905053    -0.71400
V485        V  0.60945588  0.12065864  0.86732290     1.35200
V486        V  0.64558504  0.11942854  0.86572630     1.35200
C487        C  0.62619449  0.07590907  0.86874395     0.78000
C488        C  0.62891367  0.16415628  0.86436526     0.78100
C489        C  0.62554743  0.11808310  0.82252545     0.77900
C490        C  0.62943420  0.12201240  0.91058016     0.77900
O491        O  0.61102595  0.12952915  0.14955954    -0.71200
O492        O  0.61052491  0.13188879  0.08374044    -0.71500
O493        O  0.61227250  0.09813995  0.11567930    -0.71300
O494        O  0.60930911  0.16396875  0.11799847    -0.71300
O495        O  0.64670104  0.16557156  0.11330112    -0.71300
O496        O  0.64977859  0.09979972  0.11947903    -0.71300
O497        O  0.64819309  0.12969321  0.08357426    -0.71200
O498        O  0.64824491  0.13572088  0.14942445    -0.71400
V499        V  0.61145959  0.13100283  0.11669480     1.35200
V500        V  0.64758455  0.13268511  0.11645780     1.35200
C501        C  0.62968484  0.13245585  0.16068214     0.78000
C502        C  0.62927616  0.13021576  0.07245162     0.78100
C503        C  0.63145057  0.08778070  0.11810074     0.77900
C504        C  0.62748302  0.17598615  0.11538716     0.77900
O505        O  0.11993275  0.64648329  0.16120456    -0.71200
O506        O  0.12318881  0.64687440  0.09515077    -0.71500
O507        O  0.08880924  0.64574729  0.12669145    -0.71300
O508        O  0.15462203  0.64774674  0.12996819    -0.71300
O509        O  0.15579160  0.61031704  0.12540793    -0.71300
O510        O  0.08994084  0.60823005  0.13046204    -0.71300
O511        O  0.12049775  0.60925130  0.09527119    -0.71200
O512        O  0.12560683  0.60917921  0.16086604    -0.71400
V513        V  0.12168664  0.64606076  0.12822021     1.35200
V514        V  0.12289504  0.60991737  0.12802941     1.35200
C515        C  0.12299779  0.62776003  0.17221143     0.78000
C516        C  0.12178119  0.62800178  0.08399707     0.78100
C517        C  0.07816500  0.62670577  0.12877909     0.77900
C518        C  0.16640685  0.62937908  0.12757930     0.77900
O519        O  0.15846639  0.64034468  0.87583429    -0.71200
O520        O  0.09249983  0.64003106  0.87806934    -0.71500
O521        O  0.12640869  0.64220886  0.90991792    -0.71300
O522        O  0.12484427  0.63846114  0.84428796    -0.71300
O523        O  0.12463167  0.60077322  0.84618444    -0.71300
O524        O  0.12660744  0.60454796  0.91210451    -0.71300
O525        O  0.09290499  0.60237306  0.88029514    -0.71200
O526        O  0.15863237  0.60269360  0.87841967    -0.71400
V527        V  0.12552672  0.63952836  0.87709290     1.35200
V528        V  0.12571861  0.60332737  0.87916721     1.35200
C529        C  0.16969170  0.62151494  0.87669323     0.78000
C530        C  0.08153858  0.62109373  0.87974177     0.78100
C531        C  0.12657590  0.62403936  0.92217699     0.77900
C532        C  0.12467796  0.61909082  0.83408772     0.77900
O533        O  0.90852295  0.63943369  0.88156258    -0.71200
O534        O  0.84275058  0.63937933  0.87757879    -0.71500
O535        O  0.87384182  0.64074569  0.91258298    -0.71300
O536        O  0.87792656  0.63809263  0.84681662    -0.71300
O537        O  0.87507630  0.60050623  0.84826826    -0.71300
O538        O  0.87614786  0.60312365  0.91415315    -0.71300
O539        O  0.84270184  0.60191321  0.88197054    -0.71200
O540        O  0.90866512  0.60171214  0.88084959    -0.71400
V541        V  0.87570726  0.63870012  0.87968872     1.35200
V542        V  0.87564775  0.60251318  0.88122811     1.35200
C543        C  0.91977707  0.62061184  0.88143827     0.78000
C544        C  0.83153375  0.62066031  0.87971428     0.78100
C545        C  0.87485753  0.62239243  0.92455631     0.77900
C546        C  0.87696857  0.61884993  0.83637038     0.77900
O547        O  0.87127061  0.61442889  0.16393306    -0.71200
O548        O  0.87108162  0.61281290  0.09803671    -0.71500
O549        O  0.90429957  0.61233290  0.13084515    -0.71300
O550        O  0.83836161  0.61499072  0.13158795    -0.71300
O551        O  0.83979518  0.65267956  0.13030645    -0.71300
O552        O  0.90561609  0.65000703  0.12961761    -0.71300
O553        O  0.87238636  0.65049405  0.09702446    -0.71200
O554        O  0.87336175  0.65208870  0.16303878    -0.71400
V555        V  0.87129854  0.61437371  0.13100617     1.35200
V556        V  0.87272948  0.65058457  0.13001993     1.35200
C557        C  0.87233581  0.63350138  0.17466642     0.78000
C558        C  0.87182902  0.63134259  0.08632747     0.78100
C559        C  0.91615282  0.63078060  0.13020136     0.77900
C560        C  0.82794234  0.63428895  0.13148094     0.77900
O561        O  0.36951237  0.41006911  0.14817540    -0.71200
O562        O  0.37089292  0.34411179  0.14531134    -0.71500
O563        O  0.40310869  0.37763539  0.14455153    -0.71300
O564        O  0.33723439  0.37610580  0.14883624    -0.71300
O565        O  0.33498703  0.38148576  0.11155610    -0.71300
O566        O  0.40055305  0.37589230  0.10695830    -0.71300
O567        O  0.36453841  0.34569316  0.10815249    -0.71200
O568        O  0.37029312  0.41139192  0.11049203    -0.71400
V569        V  0.37015204  0.37704081  0.14604160     1.35200
V570        V  0.36771227  0.37854958  0.10996871     1.35200
C571        C  0.36994714  0.42196298  0.12973424     0.78000
C572        C  0.36705143  0.33374247  0.12638399     0.78100
C573        C  0.41304119  0.37645013  0.12502285     0.77900
C574        C  0.32497006  0.37912808  0.13089520     0.77900
O575        O  0.33860501  0.63072269  0.14729410    -0.71200
O576        O  0.40449438  0.62835120  0.15050853    -0.71500
O577        O  0.37241386  0.66229988  0.14728181    -0.71300
O578        O  0.37040395  0.59639184  0.15059258    -0.71300
O579        O  0.37312693  0.59456794  0.11302080    -0.71300
O580        O  0.37340123  0.66055781  0.10961540    -0.71300
O581        O  0.40613975  0.62750117  0.11283424    -0.71200
O582        O  0.34030854  0.62725275  0.10975785    -0.71400
V583        V  0.37154751  0.62937761  0.14819179     1.35200
V584        V  0.37322182  0.62752748  0.11203576     1.35200
C585        C  0.32829996  0.62916200  0.12800282     0.78000
C586        C  0.41650764  0.62777602  0.13216527     0.78100
C587        C  0.37285567  0.67263821  0.12794340     0.77900
C588        C  0.37146628  0.58426744  0.13231543     0.77900
O589        O  0.58971856  0.63221992  0.15732022    -0.71200
O590        O  0.65569590  0.63109651  0.15616500    -0.71500
O591        O  0.62344082  0.66472703  0.15847837    -0.71300
O592        O  0.62217260  0.59867051  0.15478937    -0.71300
O593        O  0.62480105  0.60095166  0.11723746    -0.71300
O594        O  0.61900758  0.66646358  0.12104821    -0.71300
O595        O  0.65487849  0.63690486  0.11889711    -0.71200
O596        O  0.58927393  0.63102822  0.11961195    -0.71400
V597        V  0.62273140  0.63171114  0.15602955     1.35200
V598        V  0.62205790  0.63374958  0.11990370     1.35200
C599        C  0.57830383  0.63136467  0.13858432     0.78000
C600        C  0.66645130  0.63466482  0.13741035     0.78100
C601        C  0.62082470  0.67675931  0.14029034     0.77900
C602        C  0.62364005  0.58858835  0.13531347     0.77900
O603        O  0.65249478  0.38342781  0.10264420    -0.71200
O604        O  0.58638973  0.38208017  0.10285213    -0.71500
O605        O  0.61883723  0.41595967  0.10359538    -0.71300
O606        O  0.62052554  0.34983939  0.10182770    -0.71300
O607        O  0.62031728  0.34885642  0.13953283    -0.71300
O608        O  0.61877318  0.41489085  0.14128735    -0.71300
O609        O  0.58671334  0.38101938  0.14054341    -0.71200
O610        O  0.65264396  0.38299864  0.14036510    -0.71400
V611        V  0.61951436  0.38284027  0.10345721     1.35200
V612        V  0.61962769  0.38193955  0.13968391     1.35200
C613        C  0.66376514  0.38351206  0.12146297     0.78000
C614        C  0.57532031  0.38117431  0.12179489     0.78100
C615        C  0.61870336  0.42666563  0.12278255     0.77900
C616        C  0.62072718  0.33813104  0.12037082     0.77900
O617        O  0.34289998  0.62013759  0.89276062    -0.71200
O618        O  0.40869352  0.62195912  0.89121391    -0.71500
O619        O  0.37521618  0.65419708  0.89244075    -0.71300
O620        O  0.37668712  0.58830780  0.89150792    -0.71300
O621        O  0.37562819  0.58867662  0.85380498    -0.71300
O622        O  0.37390501  0.65470168  0.85473378    -0.71300
O623        O  0.40789043  0.62239993  0.85349854    -0.71200
O624        O  0.34194396  0.62123050  0.85504699    -0.71400
V625        V  0.37581788  0.62120239  0.89123180     1.35200
V626        V  0.37488587  0.62172280  0.85498977     1.35200
C627        C  0.33127652  0.62041436  0.87416552     0.78000
C628        C  0.41947693  0.62227531  0.87215231     0.78100
C629        C  0.37427171  0.66563058  0.87375343     0.77900
C630        C  0.37651254  0.57729101  0.87254582     0.77900
O631        O  0.59235277  0.61875134  0.89495206    -0.71200
O632        O  0.65829046  0.61854496  0.89575435    -0.71500
O633        O  0.62508726  0.65168590  0.89733541    -0.71300
O634        O  0.62533774  0.58581121  0.89339596    -0.71300
O635        O  0.62655019  0.58810025  0.85576670    -0.71300
O636        O  0.62542204  0.65390948  0.85966173    -0.71300
O637        O  0.65875365  0.62193817  0.85817360    -0.71200
O638        O  0.59281865  0.62041382  0.85726944    -0.71400
V639        V  0.62529446  0.61876577  0.89463057     1.35200
V640        V  0.62581888  0.62099800  0.85844828     1.35200
C641        C  0.58138714  0.61953402  0.87597038     0.78000
C642        C  0.66968352  0.62046905  0.87711958     0.78100
C643        C  0.62533953  0.66393883  0.87915381     0.77900
C644        C  0.62614890  0.57576999  0.87390471     0.77900
O645        O  0.66260855  0.37276527  0.84001793    -0.71200
O646        O  0.59646232  0.36945503  0.83934657    -0.71500
O647        O  0.62809950  0.40398814  0.84120295    -0.71300
O648        O  0.63144603  0.33795301  0.83813084    -0.71300
O649        O  0.62692516  0.33647076  0.87554802    -0.71300
O650        O  0.63137449  0.40207951  0.87873803    -0.71300
O651        O  0.59643479  0.37151899  0.87700545    -0.71200
O652        O  0.66217081  0.36683973  0.87726786    -0.71400
V653        V  0.62960532  0.37098539  0.84030602     1.35200
V654        V  0.62927074  0.36927372  0.87643055     1.35200
C655        C  0.67359532  0.36970776  0.85877937     0.78000
C656        C  0.58520336  0.37062395  0.85819790     0.78100
C657        C  0.62979597  0.41423481  0.86056011     0.77900
C658        C  0.62918479  0.32601279  0.85642342     0.77900
O659        O  0.38008631  0.40445659  0.89021862    -0.71200
O660        O  0.38048405  0.33854428  0.89073100    -0.71500
O661        O  0.41315396  0.37163454  0.88833631    -0.71300
O662        O  0.34719580  0.37119239  0.89262733    -0.71300
O663        O  0.34506393  0.37476221  0.85513693    -0.71300
O664        O  0.41061505  0.36780244  0.85090140    -0.71300
O665        O  0.37410940  0.33844497  0.85352542    -0.71200
O666        O  0.38108231  0.40393300  0.85250861    -0.71400
V667        V  0.38017825  0.37145827  0.88981032     1.35200
V668        V  0.37780292  0.37119665  0.85370368     1.35200
C669        C  0.38102041  0.41538402  0.87121673     0.78000
C670        C  0.37660849  0.32738043  0.87226952     0.78100
C671        C  0.42310768  0.36936730  0.86889810     0.77900
C672        C  0.33494674  0.37357805  0.87456085     0.77900
C673        C  0.52603574  0.37255643  0.87225469     0.30300
C674        C  0.50683923  0.37452329  0.88709223    -0.36000
C675        C  0.48498855  0.37179785  0.87674117     0.16300
C676        C  0.48212903  0.36752151  0.85334945     0.22100
C677        C  0.50138805  0.36559695  0.83845538    -0.34100
C678        C  0.52331769  0.36830415  0.84883796     0.16200
O679        O  0.54800541  0.37410045  0.87843372    -0.26200
C680        C  0.55964152  0.37087296  0.85875314     0.06000
C681        C  0.54519015  0.36725038  0.83970342    -0.31000
O682        O  0.46002690  0.36583006  0.84740393    -0.22900
C683        C  0.44864334  0.36899952  0.86728818    -0.02900
C684        C  0.46331738  0.37274446  0.88609240    -0.17300
H685        H  0.50881514  0.37786058  0.90546963     0.20700
H686        H  0.49941525  0.36221519  0.82008802     0.19100
H687        H  0.55009743  0.36396534  0.82187479     0.19000
H688        H  0.45865370  0.37601153  0.90399307     0.14900
C689        C  0.62872925  0.51712243  0.85791881     0.30300
C690        C  0.63036137  0.49821869  0.84263479    -0.36000
C691        C  0.62998923  0.47614453  0.85287721     0.16300
C692        C  0.62826024  0.47289655  0.87654601     0.22100
C693        C  0.62661517  0.49179709  0.89183399    -0.34100
C694        C  0.62690411  0.51386773  0.88158032     0.16200
O695        O  0.62864411  0.53924962  0.85208356    -0.26200
C696        C  0.62674355  0.55032265  0.87226129     0.06000
C697        C  0.62558807  0.53541870  0.89122076    -0.31000
O698        O  0.62815855  0.45076948  0.88235709    -0.22900
C699        C  0.62972598  0.43968687  0.86215049    -0.02900
C700        C  0.63091793  0.45458177  0.84319686    -0.17300
H701        H  0.63172932  0.50056059  0.82405519     0.20700
H702        H  0.62514612  0.48945283  0.91040703     0.19100
H703        H  0.62402091  0.53984288  0.90941058     0.19000
H704        H  0.63222100  0.45014711  0.82499007     0.14900
C705        C  0.37902952  0.51763843  0.86051963     0.30300
C706        C  0.37978304  0.49757548  0.84670781    -0.36000
C707        C  0.38089891  0.47641074  0.85870379     0.16300
C708        C  0.38122760  0.47506299  0.88262535     0.22100
C709        C  0.38057532  0.49509937  0.89641239    -0.34100
C710        C  0.37944849  0.51623255  0.88443288     0.16200
O711        O  0.37782656  0.53925823  0.85303148    -0.26200
C712        C  0.37748524  0.55180518  0.87243329     0.06000
C713        C  0.37844618  0.53839206  0.89246538    -0.31000
O714        O  0.38165795  0.45348718  0.89021522    -0.22900
C715        C  0.38164656  0.44083982  0.87090740    -0.02900
C716        C  0.38126602  0.45415584  0.85077344    -0.17300
H717        H  0.37936390  0.49839683  0.82795156     0.20700
H718        H  0.38072894  0.49426316  0.91517196     0.19100
H719        H  0.37844911  0.54416860  0.91034140     0.19000
H720        H  0.38082223  0.44826158  0.83294137     0.14900
C721        C  0.47893215  0.62110448  0.88438122     0.30300
C722        C  0.49869018  0.62019792  0.89856798    -0.36000
C723        C  0.52007979  0.61990809  0.88700999     0.16300
C724        C  0.52193071  0.62047982  0.86313137     0.22100
C725        C  0.50214244  0.62133711  0.84893078    -0.34100
C726        C  0.48072441  0.62163446  0.86049673     0.16200
O727        O  0.45723320  0.62144390  0.89154555    -0.26200
C728        C  0.44493557  0.62220400  0.87202336     0.06000
C729        C  0.45860358  0.62236180  0.85212996    -0.31000
O730        O  0.54369272  0.62029506  0.85603713    -0.22900
C731        C  0.55590341  0.61957506  0.87563146    -0.02900
C732        C  0.54213165  0.61927142  0.89544459    -0.17300
H733        H  0.49746522  0.61977750  0.91730279     0.20700
H734        H  0.50336507  0.62179067  0.83019844     0.19100
H735        H  0.45303876  0.62279825  0.83419288     0.19000
H736        H  0.54760077  0.61883591  0.91341300     0.14900
C737        C  0.61927106  0.48566751  0.13794831     0.30300
C738        C  0.61942378  0.50469030  0.15316556    -0.36000
C739        C  0.62129311  0.52664946  0.14285789     0.16300
C740        C  0.62285819  0.52974962  0.11916696     0.22100
C741        C  0.62265509  0.51068902  0.10389908    -0.34100
C742        C  0.62079272  0.48866952  0.11423688     0.16200
O743        O  0.61806957  0.46362152  0.14396399    -0.26200
C744        C  0.61877765  0.45223635  0.12387797     0.06000
C745        C  0.62041527  0.46693574  0.10475014    -0.31000
O746        O  0.62422346  0.55188059  0.11333816    -0.22900
C747        C  0.62353781  0.56306794  0.13357721    -0.02900
C748        C  0.62175662  0.54822736  0.15252079    -0.17300
H749        H  0.61823610  0.50250828  0.17177695     0.20700
H750        H  0.62387931  0.51287206  0.08528925     0.19100
H751        H  0.62154325  0.46226177  0.08659194     0.19000
H752        H  0.62064057  0.55272209  0.17072525     0.14900
C753        C  0.51902849  0.62969159  0.12574373     0.30300
C754        C  0.49950774  0.62880783  0.11127649    -0.36000
C755        C  0.47797574  0.62822191  0.12250200     0.16300
C756        C  0.47571811  0.62853248  0.14634920     0.22100
C757        C  0.49530125  0.62942059  0.16086588    -0.34100
C758        C  0.51690586  0.62998701  0.14960834     0.16200
O759        O  0.54079584  0.63020946  0.11884462    -0.26200
C760        C  0.55285257  0.63082022  0.13850287     0.06000
C761        C  0.53893806  0.63077653  0.15824605    -0.31000
O762        O  0.45380946  0.62818990  0.15304340    -0.22900
C763        C  0.44197673  0.62764938  0.13319407    -0.02900
C764        C  0.45611824  0.62758311  0.11366293    -0.17300
H765        H  0.50101058  0.62860862  0.09255718     0.20700
H766        H  0.49379856  0.62969960  0.17958311     0.19100
H767        H  0.54428949  0.63115240  0.17624988     0.19000
H768        H  0.45099924  0.62738594  0.09558694     0.14900
C769        C  0.51523440  0.37882359  0.11111876     0.30300
C770        C  0.49475212  0.37837919  0.09782936    -0.36000
C771        C  0.47385656  0.37700129  0.11035537     0.16300
C772        C  0.47320109  0.37614159  0.13428580     0.22100
C773        C  0.49362598  0.37647044  0.14752765    -0.34100
C774        C  0.51445010  0.37787202  0.13503686     0.16200
O775        O  0.53669888  0.38021159  0.10312151    -0.26200
C776        C  0.54976569  0.38014837  0.12221026     0.06000
C777        C  0.53682293  0.37873062  0.14253028    -0.31000
O778        O  0.45185308  0.37554674  0.14249662    -0.22900
C779        C  0.43855884  0.37597852  0.12362069    -0.02900
C780        C  0.45129368  0.37679377  0.10308896    -0.17300
H781        H  0.49507375  0.37921996  0.07907205     0.20700
H782        H  0.49329254  0.37589413  0.16629643     0.19100
H783        H  0.54303648  0.37834562  0.16025735     0.19000
H784        H  0.44484860  0.37760216  0.08546164     0.14900
C785        C  0.36911135  0.52451488  0.12133111     0.30300
C786        C  0.36805977  0.50462064  0.10739119    -0.36000
C787        C  0.36863948  0.48333807  0.11908821     0.16300
C788        C  0.37004913  0.48160362  0.14293159     0.22100
C789        C  0.37093889  0.50159514  0.15696479    -0.34100
C790        C  0.37042177  0.52299349  0.14520363     0.16200
O791        O  0.36929404  0.54610196  0.11382946    -0.26200
C792        C  0.37065713  0.55874075  0.13308409     0.06000
C793        C  0.37135259  0.54531712  0.15319872    -0.31000
O794        O  0.37068565  0.45978947  0.15005267    -0.22900
C795        C  0.36975761  0.44751736  0.13044930    -0.02900
C796        C  0.36840100  0.46129387  0.11070781    -0.17300
H797        H  0.36710250  0.50566896  0.08866599     0.20700
H798        H  0.37214930  0.50054424  0.17567539     0.19100
H799        H  0.37261215  0.55115377  0.17100959     0.19000
H800        H  0.36745439  0.45582306  0.09276026     0.14900
C801        C  0.72641372  0.63019450  0.14590954     0.30300
C802        C  0.74692988  0.62138248  0.15560320    -0.36000
C803        C  0.76762846  0.62865758  0.14511497     0.16300
C804        C  0.76819226  0.64414041  0.12683210     0.22100
C805        C  0.74765796  0.65285059  0.11704862    -0.34100
C806        C  0.72692337  0.64501889  0.12709111     0.16200
O807        O  0.70510269  0.62493414  0.15235111    -0.26200
C808        C  0.69183126  0.63618163  0.13718099     0.06000
C809        C  0.70442065  0.64893652  0.12105177    -0.31000
O810        O  0.78950875  0.64852885  0.11972456    -0.22900
C811        C  0.80263761  0.63527980  0.13332105    -0.02900
C812        C  0.79001701  0.62250172  0.14937548    -0.17300
H813        H  0.74674261  0.60924881  0.16993052     0.20700
H814        H  0.74782338  0.66446603  0.10229868     0.19100
H815        H  0.69790358  0.65944615  0.10691118     0.19000
H816        H  0.79646907  0.61053589  0.16234135     0.14900
C817        C  0.72925054  0.61227228  0.88548961     0.30300
C818        C  0.74929671  0.60136845  0.89397882    -0.36000
C819        C  0.77047840  0.61091744  0.88678489     0.16300
C820        C  0.77188247  0.63021723  0.87266258     0.22100
C821        C  0.75182484  0.64091191  0.86387529    -0.34100
C822        C  0.73063347  0.63101282  0.87062313     0.16200
O823        O  0.70764928  0.60622275  0.88999100    -0.26200
C824        C  0.69508149  0.62098334  0.87747770     0.06000
C825        C  0.70839498  0.63670363  0.86495350    -0.31000
O826        O  0.79351604  0.63645351  0.86849065    -0.22900
C827        C  0.80607530  0.62066874  0.87973848    -0.02900
C828        C  0.79269327  0.60431098  0.89134164    -0.17300
H829        H  0.74843818  0.58639494  0.90527218     0.20700
H830        H  0.75268573  0.65578069  0.85244456     0.19100
H831        H  0.70248964  0.65050494  0.85365934     0.19000
H832        H  0.79853040  0.58983359  0.90179225     0.14900
C833        C  0.87314848  0.61705201  0.02722682     0.30300
C834        C  0.87340069  0.60226809  0.00788325    -0.36000
C835        C  0.87409400  0.61316926  0.98615170     0.16300
C836        C  0.87452446  0.63698391  0.98359273     0.22100
C837        C  0.87441950  0.65177663  0.00295073    -0.34100
C838        C  0.87368657  0.64086833  0.02470134     0.16200
O839        O  0.87231757  0.61057080  0.04914933    -0.26200
C840        C  0.87231325  0.63048188  0.06084236     0.06000
C841        C  0.87318426  0.64991736  0.04654201    -0.31000
O842        O  0.87483265  0.64342676  0.96163353    -0.22900
C843        C  0.87463842  0.62347315  0.95000747    -0.02900
C844        C  0.87423066  0.60407681  0.96435391    -0.17300
H845        H  0.87295741  0.58357912  0.00965340     0.20700
H846        H  0.87473761  0.67046721  0.00117400     0.19100
H847        H  0.87341585  0.66802526  0.05153353     0.19000
H848        H  0.87392707  0.58595511  0.95941218     0.14900
C849        C  0.22932412  0.61241486  0.88293640     0.30300
C850        C  0.24953443  0.60271950  0.89245179    -0.36000
C851        C  0.27055488  0.61138754  0.88382615     0.16300
C852        C  0.27160177  0.62796923  0.86655985     0.22100
C853        C  0.25140342  0.63792877  0.85732057    -0.34100
C854        C  0.23040102  0.62970831  0.86638682     0.16200
O855        O  0.20782642  0.60702045  0.88854672    -0.26200
C856        C  0.19504880  0.62139735  0.87579649     0.06000
C857        C  0.20810194  0.63598999  0.86175596    -0.31000
O858        O  0.29307857  0.63312207  0.86066971    -0.22900
C859        C  0.30591058  0.62003047  0.87467614    -0.02900
C860        C  0.29290024  0.60625775  0.88957137    -0.17300
H861        H  0.24890854  0.58950400  0.90577340     0.20700
H862        H  0.25203127  0.65128103  0.84413658     0.19100
H863        H  0.20200118  0.64904964  0.84970935     0.19000
H864        H  0.29904761  0.59403797  0.90244664     0.14900
C865        C  0.02180403  0.63202895  0.88048333     0.30300
C866        C  0.00157860  0.64539921  0.87862627    -0.36000
C867        C  0.98061290  0.63326195  0.88052197     0.16300
C868        C  0.97952701  0.60957878  0.88398915     0.22100
C869        C  0.99978155  0.59620192  0.88601581    -0.34100
C870        C  0.02078081  0.60835793  0.88408047     0.16200
O871        O  0.04325999  0.63973976  0.87867040    -0.26200
C872        C  0.05613789  0.62074750  0.88106352     0.06000
C873        C  0.04311551  0.60072878  0.88456229    -0.31000
O874        O  0.95799384  0.60182889  0.88477062    -0.22900
C875        C  0.94521478  0.62085538  0.88188176    -0.02900
C876        C  0.95834919  0.64088558  0.87919169    -0.17300
H877        H  0.00214456  0.66393418  0.87567240     0.20700
H878        H  0.99921410  0.57761632  0.88864039     0.19100
H879        H  0.04923981  0.58311488  0.88684817     0.19000
H880        H  0.95232889  0.65846441  0.87641843     0.14900
C881        C  0.22617291  0.62115078  0.11999481     0.30300
C882        C  0.24634354  0.61067078  0.11121621    -0.36000
C883        C  0.26744537  0.62033145  0.11857154     0.16300
C884        C  0.26862477  0.63866229  0.13396928     0.22100
C885        C  0.24846044  0.64943465  0.14237450    -0.34100
C886        C  0.22736259  0.64010948  0.13460530     0.16200
O887        O  0.20461972  0.61474637  0.11569119    -0.26200
C888        C  0.19186333  0.63007972  0.12733659     0.06000
C889        C  0.20505130  0.64635402  0.13931105    -0.31000
O890        O  0.29016238  0.64419047  0.13938569    -0.22900
C891        C  0.30290971  0.62953938  0.12690872    -0.02900
C892        C  0.28976789  0.61440941  0.11348876    -0.17300
H893        H  0.24563284  0.59597808  0.09953595     0.20700
H894        H  0.24917326  0.66399745  0.15421609     0.19100
H895        H  0.19904235  0.66038348  0.15026918     0.19000
H896        H  0.29581387  0.60064104  0.10222369     0.14900
C897        C  0.01861308  0.63867519  0.12907399     0.30300
C898        C  0.99883415  0.65280825  0.12829596    -0.36000
C899        C  0.97747422  0.64128768  0.12936660     0.16300
C900        C  0.97560001  0.61747173  0.13110616     0.22100
C901        C  0.99544371  0.60329955  0.13199803    -0.34100
C902        C  0.01688154  0.61485068  0.13089617     0.16200
O903        O  0.04027990  0.64586416  0.12808429    -0.26200
C904        C  0.05267785  0.62643409  0.12930294     0.06000
C905        C  0.03907128  0.60655929  0.13110218    -0.31000
O906        O  0.95378708  0.61044969  0.13161774    -0.22900
C907        C  0.94163724  0.63006706  0.13020337    -0.02900
C908        C  0.95547367  0.64976072  0.12879839    -0.17300
H909        H  0.00002060  0.67149214  0.12683567     0.20700
H910        H  0.99425450  0.58460850  0.13333230     0.19100
H911        H  0.04471523  0.58868294  0.13230154     0.19000
H912        H  0.95006953  0.66770491  0.12746137     0.14900
C913        C  0.12293539  0.63843500  0.02399371     0.30300
C914        C  0.12384753  0.65158640  0.00349332    -0.36000
C915        C  0.12477090  0.63888233  0.98270670     0.16300
C916        C  0.12475581  0.61492567  0.98215032     0.22100
C917        C  0.12372717  0.60181994  0.00258046    -0.34100
C918        C  0.12281416  0.61448737  0.02329945     0.16200
O919        O  0.12241429  0.64658585  0.04542122    -0.26200
C920        C  0.12188827  0.62755378  0.05850891     0.06000
C921        C  0.12204669  0.60713784  0.04566133    -0.31000
O922        O  0.12566368  0.60658113  0.96088534    -0.22900
C923        C  0.12628060  0.62541091  0.94759356    -0.02900
C924        C  0.12576482  0.64602277  0.96019162    -0.17300
H925        H  0.12394816  0.67036299  0.00373213     0.20700
H926        H  0.12371345  0.58304179  0.00234219     0.19100
H927        H  0.12194411  0.58943690  0.05194027     0.19000
H928        H  0.12589328  0.66363781  0.95368099     0.14900
C929        C  0.61631395  0.23522776  0.12395938     0.30300
C930        C  0.60605230  0.25468390  0.13447532    -0.36000
C931        C  0.61403719  0.27642032  0.12693573     0.16300
C932        C  0.63054161  0.27888739  0.10975834     0.22100
C933        C  0.64110290  0.25941074  0.09951084    -0.34100
C934        C  0.63352476  0.23765291  0.10748020     0.16200
O935        O  0.61160047  0.21329476  0.12856849    -0.26200
C936        C  0.62628267  0.20148847  0.11520581     0.06000
C937        C  0.64045052  0.21571791  0.10179874    -0.31000
O938        O  0.63494567  0.30086784  0.10495939    -0.22900
C939        C  0.62144064  0.31260450  0.11960284    -0.02900
C940        C  0.60817033  0.29830699  0.13379185    -0.17300
H941        H  0.59289159  0.25298609  0.14775738     0.20700
H942        H  0.65441287  0.26110490  0.08637667     0.19100
H943        H  0.65376141  0.21060497  0.08956895     0.19000
H944        H  0.59573042  0.30335269  0.14693069     0.14900
C945        C  0.63810883  0.22342751  0.85341261     0.30300
C946        C  0.64763003  0.24309138  0.84249656    -0.36000
C947        C  0.63825729  0.26464303  0.84915310     0.16300
C948        C  0.62117848  0.26663849  0.86583801     0.22100
C949        C  0.61147587  0.24705099  0.87644549    -0.34100
C950        C  0.62041089  0.22557988  0.86940842     0.16200
O951        O  0.64394667  0.20153001  0.84975411    -0.26200
C952        C  0.62946686  0.18963471  0.86330099     0.06000
C953        C  0.61442244  0.20369589  0.87582278    -0.31000
O954        O  0.61565620  0.28836178  0.87028550    -0.22900
C955        C  0.62895365  0.30054692  0.85593680    -0.02900
C956        C  0.64330600  0.28675764  0.84220969    -0.17300
H957        H  0.66127502  0.24168405  0.82967244     0.20700
H958        H  0.59784250  0.24846133  0.88928245     0.19100
H959        H  0.60106402  0.19849325  0.88795200     0.19000
H960        H  0.65614994  0.29227678  0.82967485     0.14900
C961        C  0.61865659  0.12363974  0.97034263     0.30300
C962        C  0.60495075  0.12387971  0.99044603    -0.36000
C963        C  0.61697086  0.12576321  0.01151107     0.16300
C964        C  0.64085803  0.12715271  0.01276463     0.22100
C965        C  0.65458766  0.12686688  0.99262880    -0.34100
C966        C  0.64254419  0.12511374  0.97152062     0.16200
O967        O  0.61097938  0.12231340  0.94884363    -0.26200
C968        C  0.63016917  0.12297369  0.93603677     0.06000
C969        C  0.65035838  0.12469054  0.94919103    -0.31000
O970        O  0.64841666  0.12888325  0.03431962    -0.22900
C971        C  0.62909835  0.12872008  0.04698834    -0.02900
C972        C  0.60902216  0.12679203  0.03372137    -0.17300
H973        H  0.58621118  0.12283857  0.98970071     0.20700
H974        H  0.67331708  0.12806799  0.99336311     0.19100
H975        H  0.66812542  0.12558957  0.94316471     0.19000
H976        H  0.59119571  0.12619944  0.03961416     0.14900
C977        C  0.63542968  0.76608545  0.87784474     0.30300
C978        C  0.64668669  0.74618915  0.86948316    -0.36000
C979        C  0.63647969  0.72492180  0.87536352     0.16300
C980        C  0.61692183  0.72326965  0.88911276     0.22100
C981        C  0.60551583  0.74319946  0.89728496    -0.34100
C982        C  0.61537742  0.76451250  0.89086707     0.16200
O983        O  0.64156625  0.78772981  0.87377487    -0.26200
C984        C  0.62501242  0.80018617  0.88394747     0.06000
C985        C  0.60821013  0.78670808  0.89481290    -0.31000
O986        O  0.61050489  0.70157195  0.89261576    -0.22900
C987        C  0.62590882  0.68928997  0.88057666    -0.02900
C988        C  0.64237484  0.70284869  0.86938249    -0.17300
H989        H  0.66207201  0.74723821  0.85876766     0.20700
H990        H  0.58983521  0.74216583  0.90756358     0.19100
H991        H  0.59294878  0.79245492  0.90414077     0.19000
H992        H  0.65668729  0.69719498  0.85860310     0.14900
C993        C  0.63519070  0.97348356  0.87423586     0.30300
C994        C  0.64912903  0.99336436  0.87272145    -0.36000
C995        C  0.63734485  0.01464126  0.87188812     0.16300
C996        C  0.61345414  0.01635166  0.87244671     0.22100
C997        C  0.59947291  0.99642499  0.87400777    -0.34100
C998        C  0.61129001  0.97509082  0.87487752     0.16200
O999        O  0.64263197  0.95184985  0.87519890    -0.26200
C1000       C  0.62326650  0.93936039  0.87648772     0.06000
C1001       C  0.60322004  0.95289476  0.87637004    -0.31000
O1002       O  0.60618355  0.03809098  0.87136967    -0.22900
C1003       C  0.62571879  0.05039595  0.87015296    -0.02900
C1004       C  0.64559532  0.03669503  0.87043888    -0.17300
H1005       H  0.66787641  0.99231683  0.87222473     0.20700
H1006       H  0.58072503  0.99747254  0.87449521     0.19100
H1007       H  0.58534710  0.94718552  0.87723341     0.19000
H1008       H  0.66353028  0.04221953  0.86964470     0.14900
C1009       C  0.62821071  0.77905709  0.14501417     0.30300
C1010       C  0.63737695  0.75934489  0.15600740    -0.36000
C1011       C  0.62828665  0.73794867  0.14880845     0.16300
C1012       C  0.61176198  0.73608654  0.13154698     0.22100
C1013       C  0.60225321  0.75580995  0.12089645    -0.34100
C1014       C  0.61093204  0.77721765  0.12850063     0.16200
O1015       O  0.63453867  0.80072918  0.14867609    -0.26200
C1016       C  0.62078182  0.81290512  0.13470132     0.06000
C1017       C  0.60562195  0.79926152  0.12183892    -0.31000
O1018       O  0.60679180  0.71435408  0.12650930    -0.22900
C1019       C  0.61989058  0.70215055  0.14108572    -0.02900
C1020       C  0.63351859  0.71586700  0.15551254    -0.17300
H1021       H  0.65077330  0.76059727  0.16911504     0.20700
H1022       H  0.58915515  0.75453770  0.10749040     0.19100
H1023       H  0.59303323  0.80477767  0.10902500     0.19000
H1024       H  0.64613149  0.71033326  0.16829195     0.14900
C1025       C  0.64091286  0.98541895  0.12465551     0.30300
C1026       C  0.65509568  0.00527086  0.12506545    -0.36000
C1027       C  0.64358537  0.02666143  0.12271901     0.16300
C1028       C  0.61981064  0.02830256  0.12015711     0.22100
C1029       C  0.60569715  0.00854923  0.11980415    -0.34100
C1030       C  0.61715527  0.98727425  0.12214345     0.16200
O1031       O  0.64781251  0.96363190  0.12661989    -0.26200
C1032       C  0.62815128  0.95153257  0.12539525     0.06000
C1033       C  0.60859019  0.96535276  0.12259615    -0.31000
O1034       O  0.61259997  0.04987618  0.11817698    -0.22900
C1035       C  0.63194809  0.06234797  0.11944619    -0.02900
C1036       C  0.65182201  0.04887300  0.12232827    -0.17300
H1037       H  0.67373676  0.00412528  0.12706893     0.20700
H1038       H  0.58704978  0.00969685  0.11784409     0.19100
H1039       H  0.59064183  0.95998921  0.12117698     0.19000
H1040       H  0.66963808  0.05460908  0.12389401     0.14900
C1041       C  0.63696169  0.87435526  0.02656529     0.30300
C1042       C  0.65069694  0.87262230  0.00651324    -0.36000
C1043       C  0.63864291  0.87255044  0.98533620     0.16300
C1044       C  0.61474815  0.87393753  0.98402651     0.22100
C1045       C  0.60105022  0.87554185  0.00403136    -0.34100
C1046       C  0.61307808  0.87574064  0.02513836     0.16200
O1047       O  0.64450359  0.87524867  0.04817707    -0.26200
C1048       C  0.62515824  0.87724067  0.06064450     0.06000
C1049       C  0.60511563  0.87759358  0.04723463    -0.31000
O1050       O  0.60707410  0.87386315  0.96250059    -0.22900
C1051       C  0.62627664  0.87249431  0.94980113    -0.02900
C1052       C  0.64646615  0.87157998  0.96304533    -0.17300
H1053       H  0.66943818  0.87165645  0.00735037     0.20700
H1054       H  0.58232511  0.87678532  0.00318465     0.19100
H1055       H  0.58729311  0.87919527  0.05295790     0.19000
H1056       H  0.66424738  0.87042711  0.95709730     0.14900
C1057       C  0.27546001  0.37039376  0.88733396     0.30300
C1058       C  0.25544669  0.36326103  0.89926910    -0.36000
C1059       C  0.23420768  0.37090045  0.89004957     0.16300
C1060       C  0.23275789  0.38501107  0.87073473     0.22100
C1061       C  0.25272188  0.39181205  0.85860538    -0.34100
C1062       C  0.27390233  0.38378407  0.86753073     0.16200
O1063       O  0.29713667  0.36520058  0.89274647    -0.26200
C1064       C  0.30952284  0.37510132  0.87594973     0.06000
C1065       C  0.29597959  0.38675338  0.85973680    -0.31000
O1066       O  0.21114177  0.39014765  0.86515077    -0.22900
C1067       C  0.19859647  0.37886743  0.88087201    -0.02900
C1068       C  0.21196368  0.36649208  0.89670376    -0.17300
H1069       H  0.25635184  0.35232958  0.91450873     0.20700
H1070       H  0.25179197  0.40241168  0.84313529     0.19100
H1071       H  0.30165002  0.39622188  0.84454634     0.19000
H1072       H  0.20608427  0.35573246  0.91092444     0.14900
C1073       C  0.22281530  0.38647109  0.12558562     0.30300
C1074       C  0.24267211  0.39786417  0.11741711    -0.36000
C1075       C  0.26395497  0.38888115  0.12500474     0.16300
C1076       C  0.26563903  0.37033682  0.14009001     0.22100
C1077       C  0.24575952  0.35873584  0.14803049    -0.34100
C1078       C  0.22446146  0.36736280  0.13995388     0.16200
O1079       O  0.20117186  0.39181753  0.12048057    -0.26200
C1080       C  0.18883344  0.37565403  0.13133808     0.06000
C1081       C  0.20235108  0.35988786  0.14362706    -0.31000
O1082       O  0.28736097  0.36482189  0.14482056    -0.22900
C1083       C  0.29963292  0.37979623  0.13227311    -0.02900
C1084       C  0.28603688  0.39507274  0.11952288    -0.17300
H1085       H  0.24160861  0.41248787  0.10568718     0.20700
H1086       H  0.24683798  0.34382005  0.15938447     0.19100
H1087       H  0.19665637  0.34530931  0.15399889     0.19000
H1088       H  0.29166450  0.40861839  0.10780023     0.14900
C1089       C  0.12125369  0.38605955  0.02572465     0.30300
C1090       C  0.12122831  0.40023815  0.00593235    -0.36000
C1091       C  0.12369763  0.38876781  0.98461487     0.16300
C1092       C  0.12589244  0.36497216  0.98289277     0.22100
C1093       C  0.12589079  0.35079195  0.00267961    -0.34100
C1094       C  0.12350272  0.36226920  0.02400229     0.16200
O1095       O  0.11960376  0.39315892  0.04740409    -0.26200
C1096       C  0.12079754  0.37367591  0.05973145     0.06000
C1097       C  0.12317059  0.35389133  0.04610198    -0.31000
O1098       O  0.12782380  0.35789405  0.96123487    -0.22900
C1099       C  0.12696423  0.37740384  0.94893115    -0.02900
C1100       C  0.12444101  0.39718046  0.96253888    -0.17300
H1101       H  0.11953680  0.41890647  0.00708880     0.20700
H1102       H  0.12769539  0.33213354  0.00152789     0.19100
H1103       H  0.12472817  0.33602862  0.05169229     0.19000
H1104       H  0.12310798  0.41506132  0.95694919     0.14900
C1105       C  0.73285843  0.36071948  0.86896680     0.30300
C1106       C  0.75243688  0.35050259  0.87928846    -0.36000
C1107       C  0.77404221  0.35833064  0.87127143     0.16300
C1108       C  0.77620379  0.37551516  0.85472450     0.22100
C1109       C  0.75664322  0.38545500  0.84413443    -0.34100
C1110       C  0.73505321  0.37718308  0.85170878     0.16200
O1111       O  0.71099723  0.35606324  0.87387028    -0.26200
C1112       C  0.69905974  0.36935428  0.85923559     0.06000
C1113       C  0.71308687  0.38278515  0.84493423    -0.31000
O1114       O  0.79802208  0.38096089  0.85058241    -0.22900
C1115       C  0.80998831  0.36672602  0.86425540    -0.02900
C1116       C  0.79604049  0.35212022  0.87742282    -0.17300
H1117       H  0.75092332  0.33734936  0.89259833     0.20700
H1118       H  0.75815960  0.39869518  0.83091046     0.19100
H1119       H  0.70782596  0.39515151  0.83181031     0.19000
H1120       H  0.80134656  0.33940030  0.89018557     0.14900
C1121       C  0.98313675  0.36243444  0.87544050     0.30300
C1122       C  0.00346357  0.34914416  0.87701601    -0.36000
C1123       C  0.02431571  0.36162675  0.87744253     0.16300
C1124       C  0.02513420  0.38555372  0.87653091     0.22100
C1125       C  0.00478594  0.39886252  0.87502917    -0.34100
C1126       C  0.98391755  0.38636256  0.87448804     0.16200
O1127       O  0.96179795  0.35431225  0.87435939    -0.26200
C1128       C  0.94873092  0.37326514  0.87267423     0.06000
C1129       C  0.96152459  0.39372943  0.87271292    -0.31000
O1130       O  0.04654920  0.39358578  0.87692999    -0.22900
C1131       C  0.05957345  0.37454471  0.87803321    -0.02900
C1132       C  0.04669552  0.35415861  0.87840555    -0.17300
H1133       H  0.00305433  0.33038064  0.87763891     0.20700
H1134       H  0.00520841  0.41761528  0.87414578     0.19100
H1135       H  0.95523754  0.41138799  0.87144757     0.19000
H1136       H  0.05294059  0.33645630  0.87917756     0.14900
C1137       C  0.76636631  0.38896723  0.12834341     0.30300
C1138       C  0.74659606  0.39618917  0.14066508    -0.36000
C1139       C  0.72510621  0.39010559  0.13088847     0.16300
C1140       C  0.72323293  0.37827589  0.11012880     0.22100
C1141       C  0.74296237  0.37080173  0.09800222    -0.34100
C1142       C  0.76439785  0.37636030  0.10805426     0.16200
O1143       O  0.78819437  0.39234924  0.13444859    -0.26200
C1144       C  0.80023116  0.38138040  0.11806412     0.06000
C1145       C  0.78638271  0.37101320  0.10129420    -0.31000
O1146       O  0.70149566  0.37467712  0.10397206    -0.22900
C1147       C  0.68924392  0.38393507  0.12119659    -0.02900
C1148       C  0.70297984  0.39368918  0.13851193    -0.17300
H1149       H  0.74787981  0.40561035  0.15686409     0.20700
H1150       H  0.74167922  0.36106043  0.08199411     0.19100
H1151       H  0.79178685  0.36107185  0.08629633     0.19000
H1152       H  0.69743630  0.40232623  0.15424682     0.14900
C1153       C  0.01568825  0.36185335  0.12420336     0.30300
C1154       C  0.99560936  0.34828801  0.12152763    -0.36000
C1155       C  0.97449186  0.36046619  0.12109800     0.16300
C1156       C  0.97329511  0.38432005  0.12304869     0.22100
C1157       C  0.99330076  0.39783416  0.12575038    -0.34100
C1158       C  0.01432894  0.38568603  0.12625321     0.16200
O1159       O  0.03729182  0.35422840  0.12491912    -0.26200
C1160       C  0.04981035  0.37347689  0.12743719     0.06000
C1161       C  0.03643726  0.39352391  0.12840977    -0.31000
O1162       O  0.95185427  0.39216230  0.12230205    -0.22900
C1163       C  0.93906086  0.37312326  0.11996170    -0.02900
C1164       C  0.95216917  0.35284376  0.11910280    -0.17300
H1165       H  0.99639286  0.32959395  0.11992517     0.20700
H1166       H  0.99251766  0.41653002  0.12736009     0.19100
H1167       H  0.04221771  0.41130299  0.13022463     0.19000
H1168       H  0.94611916  0.33514975  0.11738188     0.14900
C1169       C  0.87243294  0.36379006  0.01502016     0.30300
C1170       C  0.87357104  0.34929915  0.99547282    -0.36000
C1171       C  0.87431684  0.36052277  0.97389792     0.16300
C1172       C  0.87395541  0.38437045  0.97168516     0.22100
C1173       C  0.87283706  0.39886933  0.99125052    -0.34100
C1174       C  0.87208888  0.38764131  0.01284596     0.16200
O1175       O  0.87169198  0.35697257  0.03684068    -0.26200
C1176       C  0.87084051  0.37669153  0.04884025     0.06000
C1177       C  0.87104365  0.39635460  0.03483037    -0.31000
O1178       O  0.87480403  0.39114841  0.94983383    -0.22900
C1179       C  0.87573876  0.37138599  0.93790500    -0.02900
C1180       C  0.87549966  0.35176979  0.95197131    -0.17300
H1181       H  0.87388392  0.33058423  0.99698726     0.20700
H1182       H  0.87258565  0.41758398  0.98973847     0.19100
H1183       H  0.87060020  0.41438047  0.04009447     0.19000
H1184       H  0.87611157  0.33372696  0.94677449     0.14900
C1185       C  0.37707086  0.73224547  0.11568391     0.30300
C1186       C  0.38376519  0.75223417  0.10343181    -0.36000
C1187       C  0.37818907  0.77356129  0.11387862     0.16300
C1188       C  0.36629061  0.77513291  0.13462288     0.22100
C1189       C  0.35985071  0.75519027  0.14696768    -0.34100
C1190       C  0.36592686  0.73391470  0.13682401     0.16200
O1191       O  0.38082673  0.71048435  0.10942722    -0.26200
C1192       C  0.37231214  0.69815262  0.12702023     0.06000
C1193       C  0.36292879  0.71182820  0.14454362    -0.31000
O1194       O  0.36272169  0.79679476  0.14115372    -0.22900
C1195       C  0.37287602  0.80924491  0.12461440    -0.02900
C1196       C  0.38286542  0.79577102  0.10725301    -0.17300
H1197       H  0.39296403  0.75123690  0.08709198     0.20700
H1198       H  0.35100144  0.75619335  0.16349885     0.19100
H1199       H  0.35491463  0.70624251  0.16058016     0.19000
H1200       H  0.39210907  0.80155783  0.09196647     0.14900
C1201       C  0.36576518  0.76793345  0.86773427     0.30300
C1202       C  0.35596994  0.74788973  0.85797161    -0.36000
C1203       C  0.36481182  0.72668903  0.86601756     0.16300
C1204       C  0.38166866  0.72527219  0.88299779     0.22100
C1205       C  0.39173477  0.74533766  0.89250316    -0.34100
C1206       C  0.38333135  0.76656309  0.88398522     0.16200
O1207       O  0.36014853  0.78952879  0.86266599    -0.26200
C1208       C  0.37464724  0.80216021  0.87543258     0.06000
C1209       C  0.38956516  0.78884617  0.88896629    -0.31000
O1210       O  0.38699545  0.70362882  0.88827138    -0.22900
C1211       C  0.37371762  0.69107996  0.87414130    -0.02900
C1212       C  0.35966967  0.70446813  0.85980662    -0.17300
H1213       H  0.34253765  0.74877196  0.84486849     0.20700
H1214       H  0.40530387  0.74445627  0.90546438     0.19100
H1215       H  0.40274149  0.79475994  0.90098334     0.19000
H1216       H  0.34730776  0.69862973  0.84691794     0.14900
C1217       C  0.36032799  0.87390983  0.97854397     0.30300
C1218       C  0.34664180  0.87375858  0.99872137    -0.36000
C1219       C  0.35874484  0.87555827  0.01980781     0.16300
C1220       C  0.38261536  0.87744514  0.02088146     0.22100
C1221       C  0.39623756  0.87764417  0.00078659    -0.34100
C1222       C  0.38418682  0.87575464  0.97979856     0.16200
O1223       O  0.35280765  0.87233853  0.95694954    -0.26200
C1224       C  0.37216137  0.87312551  0.94435205     0.06000
C1225       C  0.39216096  0.87523903  0.95765588    -0.31000
O1226       O  0.39041899  0.87865165  0.04229923    -0.22900
C1227       C  0.37135578  0.87750017  0.05520222    -0.02900
C1228       C  0.35107757  0.87560069  0.04219718    -0.17300
H1229       H  0.32793470  0.87223119  0.99803548     0.20700
H1230       H  0.41495769  0.87903096  0.00148102     0.19100
H1231       H  0.40998214  0.87633949  0.95181574     0.19000
H1232       H  0.33338300  0.87426088  0.04835193     0.14900
C1233       C  0.36274909  0.26851295  0.86818132     0.30300
C1234       C  0.34902550  0.24897394  0.86327234    -0.36000
C1235       C  0.35948436  0.22735911  0.86738750     0.16300
C1236       C  0.38195805  0.22523474  0.87546324     0.22100
C1237       C  0.39548411  0.24469865  0.88071622    -0.34100
C1238       C  0.38494735  0.26622520  0.87695232     0.16200
O1239       O  0.35678419  0.29040870  0.86520347    -0.26200
C1240       C  0.37527757  0.30210763  0.87256799     0.06000
C1241       C  0.39324099  0.28804111  0.88021020    -0.31000
O1242       O  0.38856980  0.20350325  0.87748943    -0.22900
C1243       C  0.37007036  0.19145954  0.87087737    -0.02900
C1244       C  0.35134219  0.20532241  0.86448940    -0.17300
H1245       H  0.33152573  0.25051552  0.85661392     0.20700
H1246       H  0.41304055  0.24315179  0.88722396     0.19100
H1247       H  0.41011143  0.29318819  0.88668343     0.19000
H1248       H  0.33441294  0.19994542  0.85837202     0.14900
C1249       C  0.38346946  0.97566672  0.87719479     0.30300
C1250       C  0.39720863  0.99572935  0.87865518    -0.36000
C1251       C  0.38533649  0.01692302  0.87695123     0.16300
C1252       C  0.36157173  0.01826044  0.87416787     0.22100
C1253       C  0.34782978  0.99821593  0.87285736    -0.34100
C1254       C  0.35970480  0.97703757  0.87444278     0.16200
O1255       O  0.39099269  0.95405922  0.87776299    -0.26200
C1256       C  0.37179987  0.94143897  0.87536383     0.06000
C1257       C  0.35179449  0.95480033  0.87329961    -0.31000
O1258       O  0.35410517  0.03982106  0.87262256    -0.22900
C1259       C  0.37332181  0.05248372  0.87435076    -0.02900
C1260       C  0.39330368  0.03918868  0.87710682    -0.17300
H1261       H  0.41586388  0.99486578  0.88067684     0.20700
H1262       H  0.32921309  0.99907724  0.87050582     0.19100
H1263       H  0.33408542  0.94896466  0.87102054     0.19000
H1264       H  0.41105555  0.04507921  0.87884676     0.14900
C1265       C  0.35467564  0.23190516  0.11893186     0.30300
C1266       C  0.34437292  0.25240338  0.11064930    -0.36000
C1267       C  0.35454839  0.27323989  0.11818711     0.16300
C1268       C  0.37306756  0.27381662  0.13340631     0.22100
C1269       C  0.38344967  0.25339026  0.14150129    -0.34100
C1270       C  0.37375553  0.23264059  0.13342906     0.16200
O1271       O  0.34863115  0.21046512  0.11352917    -0.26200
C1272       C  0.36437159  0.19748839  0.12437454     0.06000
C1273       C  0.38042822  0.21032168  0.13693189    -0.31000
O1274       O  0.37973186  0.29509611  0.13839160    -0.22900
C1275       C  0.36567567  0.30836406  0.12581979    -0.02900
C1276       C  0.34967619  0.29577836  0.11281805    -0.17300
H1277       H  0.32980273  0.25212212  0.09879580     0.20700
H1278       H  0.39835828  0.25366662  0.15292815     0.19100
H1279       H  0.39493933  0.20405119  0.14709710     0.19000
H1280       H  0.33628256  0.30231783  0.10137692     0.14900
C1281       C  0.38442402  0.02515826  0.12202942     0.30300
C1282       C  0.39891284  0.00564729  0.12407416    -0.36000
C1283       C  0.38778195  0.98401054  0.12300627     0.16300
C1284       C  0.36408913  0.98184070  0.12007727     0.22100
C1285       C  0.34968385  0.00126626  0.11795992    -0.34100
C1286       C  0.36075370  0.02280117  0.11911814     0.16200
O1287       O  0.39092033  0.04708349  0.12296325    -0.26200
C1288       C  0.37110250  0.05876371  0.12071852     0.06000
C1289       C  0.35180891  0.04456491  0.11823290    -0.31000
O1290       O  0.35720840  0.96011131  0.11985526    -0.22900
C1291       C  0.37668576  0.94810399  0.12263629    -0.02900
C1292       C  0.39633530  0.96199768  0.12468251    -0.17300
H1293       H  0.41746905  0.00722720  0.12652186     0.20700
H1294       H  0.33109147  0.99968887  0.11579377     0.19100
H1295       H  0.33380825  0.04958142  0.11623858     0.19000
H1296       H  0.41417665  0.95665940  0.12718704     0.14900
C1297       C  0.35611570  0.12545109  0.97524177     0.30300
C1298       C  0.34213206  0.12455046  0.99519744    -0.36000
C1299       C  0.35385033  0.12634820  0.01651356     0.16300
C1300       C  0.37763581  0.12888879  0.01803434     0.22100
C1301       C  0.39154545  0.12986420  0.99815282    -0.34100
C1302       C  0.37988163  0.12800410  0.97693165     0.16200
O1303       O  0.34902831  0.12371270  0.95350075    -0.26200
C1304       C  0.36858190  0.12507736  0.94125713     0.06000
C1305       C  0.38825072  0.12781425  0.95493213    -0.31000
O1306       O  0.38505789  0.12996397  0.03962158    -0.22900
C1307       C  0.36580827  0.12815678  0.05217751    -0.02900
C1308       C  0.34582736  0.12585628  0.03876314    -0.17300
H1309       H  0.32349797  0.12242286  0.99418865     0.20700
H1310       H  0.41020749  0.13173879  0.99916761     0.19100
H1311       H  0.40615044  0.12928926  0.94942606     0.19000
H1312       H  0.32807017  0.12394544  0.04457831     0.14900
C1313       C  0.87466593  0.01599292  0.63251107     0.30300
C1314       C  0.87511457  0.99671333  0.64741012    -0.36000
C1315       C  0.87436947  0.97486340  0.63664473     0.16300
C1316       C  0.87316175  0.97215649  0.61287034     0.22100
C1317       C  0.87262994  0.99142252  0.59799253    -0.34100
C1318       C  0.87349074  0.01325113  0.60874131     0.16200
O1319       O  0.87552510  0.03801820  0.63877629    -0.26200
C1320       C  0.87495408  0.04951080  0.61874106     0.06000
C1321       C  0.87366781  0.03498707  0.59949398    -0.31000
O1322       O  0.87302828  0.95015844  0.60650758    -0.22900
C1323       C  0.87420061  0.93859715  0.62646040    -0.02900
C1324       C  0.87503470  0.95306967  0.64579047    -0.17300
H1325       H  0.87618399  0.99861001  0.66606385     0.20700
H1326       H  0.87183183  0.98952264  0.57932622     0.19100
H1327       H  0.87300301  0.03977661  0.58134570     0.19000
H1328       H  0.87620555  0.94821457  0.66389613     0.14900
C1329       C  0.02292209  0.11877501  0.60883584     0.30300
C1330       C  0.00348995  0.11763207  0.59410497    -0.36000
C1331       C  0.98170498  0.11832404  0.60505668     0.16300
C1332       C  0.97927302  0.12000001  0.62883217     0.22100
C1333       C  0.99864560  0.12105899  0.64350919    -0.34100
C1334       C  0.02035197  0.12036325  0.63259681     0.16200
O1335       O  0.04493443  0.11882908  0.60241987    -0.26200
C1336       C  0.05652366  0.12043983  0.62236866     0.06000
C1337       C  0.04211018  0.12137602  0.64168200    -0.31000
O1338       O  0.95738997  0.12050768  0.63544042    -0.22900
C1339       C  0.94554272  0.11912923  0.61568394    -0.02900
C1340       C  0.95974570  0.11773534  0.59616925    -0.17300
H1341       H  0.00522897  0.11643035  0.57544473     0.20700
H1342       H  0.99690705  0.12244059  0.66215708     0.19100
H1343       H  0.04698151  0.12289454  0.65976321     0.19000
H1344       H  0.95462365  0.11649108  0.57813759     0.14900
C1345       C  0.02286110  0.87571751  0.61906405     0.30300
C1346       C  0.00274260  0.87558376  0.60537901    -0.36000
C1347       C  0.98165594  0.87453228  0.61743520     0.16300
C1348       C  0.98036929  0.87376896  0.64134277     0.22100
C1349       C  0.00053331  0.87406756  0.65507005    -0.34100
C1350       C  0.02167681  0.87500119  0.64298294     0.16200
O1351       O  0.04437524  0.87597304  0.61132497    -0.26200
C1352       C  0.05720149  0.87537774  0.63050231     0.06000
C1353       C  0.04403815  0.87481818  0.65075096    -0.31000
O1354       O  0.95877427  0.87236337  0.64889467    -0.22900
C1355       C  0.94612918  0.87220947  0.62954195    -0.02900
C1356       C  0.95945441  0.87357942  0.60947439    -0.17300
H1357       H  0.00349226  0.87595105  0.58661840     0.20700
H1358       H  0.99979970  0.87330324  0.67381838     0.19100
H1359       H  0.05007868  0.87407376  0.66852426     0.19000
H1360       H  0.95361059  0.87366301  0.59161921     0.14900
C1361       C  0.12989625  0.02009885  0.61512614     0.30300
C1362       C  0.13013358  0.99993435  0.60149715    -0.36000
C1363       C  0.12975396  0.97889410  0.61369234     0.16300
C1364       C  0.12923260  0.97777575  0.63762690     0.22100
C1365       C  0.12911185  0.99791616  0.65123826    -0.34100
C1366       C  0.12941687  0.01892646  0.63905700     0.16200
O1367       O  0.12969327  0.04162959  0.60741478    -0.26200
C1368       C  0.12906300  0.05432926  0.62668017     0.06000
C1369       C  0.12888765  0.04115514  0.64686934    -0.31000
O1370       O  0.12849149  0.95630498  0.64539993    -0.22900
C1371       C  0.12852712  0.94351144  0.62620479    -0.02900
C1372       C  0.12936364  0.95659628  0.60594906    -0.17300
H1373       H  0.13034870  0.00060348  0.58273085     0.20700
H1374       H  0.12855844  0.99725065  0.66999757     0.19100
H1375       H  0.12822138  0.04711700  0.66467327     0.19000
H1376       H  0.12944596  0.95054364  0.58816440     0.14900
C1377       C  0.61870655  0.89219217  0.27642681     0.30300
C1378       C  0.60875605  0.90236869  0.25662546    -0.36000
C1379       C  0.61628169  0.89355295  0.23519300     0.16300
C1380       C  0.63285926  0.87632286  0.23342282     0.22100
C1381       C  0.64242092  0.86583971  0.25317166    -0.34100
C1382       C  0.63452667  0.87428020  0.27454904     0.16200
O1383       O  0.61431414  0.89772349  0.29821911    -0.26200
C1384       C  0.62718115  0.88285542  0.31034846     0.06000
C1385       C  0.63996493  0.86776198  0.29656560    -0.31000
O1386       O  0.63795474  0.87122155  0.21174713    -0.22900
C1387       C  0.62415343  0.88500996  0.19944750    -0.02900
C1388       C  0.61011937  0.89918527  0.21303903    -0.17300
H1389       H  0.59602312  0.91612778  0.25784603     0.20700
H1390       H  0.65510231  0.85203146  0.25194671     0.19100
H1391       H  0.65174232  0.85417601  0.30202771     0.19000
H1392       H  0.59759466  0.91200382  0.20739245     0.14900
C1393       C  0.61312341  0.87163610  0.77640536     0.30300
C1394       C  0.60365272  0.88112530  0.75609659    -0.36000
C1395       C  0.61327513  0.87329944  0.73515985     0.16300
C1396       C  0.63058889  0.85675223  0.73413271     0.22100
C1397       C  0.64026089  0.84742361  0.75449173    -0.34100
C1398       C  0.63105421  0.85574424  0.77549041     0.16200
O1399       O  0.60730628  0.87716768  0.79785320    -0.26200
C1400       C  0.62198954  0.86499763  0.81084711     0.06000
C1401       C  0.63722345  0.85143231  0.79791485    -0.31000
O1402       O  0.63696982  0.85205678  0.71259635    -0.22900
C1403       C  0.62384663  0.86613940  0.69979495    -0.02900
C1404       C  0.60889922  0.87979301  0.71290146    -0.17300
H1405       H  0.59008049  0.89410605  0.75659851     0.20700
H1406       H  0.65430932  0.83495847  0.75400757     0.19100
H1407       H  0.65092507  0.84019629  0.80417189     0.19000
H1408       H  0.59659771  0.89263949  0.70683957     0.14900
C1409       C  0.77290352  0.87551196  0.63780191     0.30300
C1410       C  0.75306777  0.88570739  0.64753694    -0.36000
C1411       C  0.73172905  0.87778934  0.63898351     0.16300
C1412       C  0.72997439  0.86058810  0.62239272     0.22100
C1413       C  0.74985213  0.85063637  0.61235720    -0.34100
C1414       C  0.77123932  0.85896771  0.62053914     0.16200
O1415       O  0.79456675  0.88041454  0.64322294    -0.26200
C1416       C  0.80696777  0.86719379  0.62895384     0.06000
C1417       C  0.79343491  0.85355301  0.61433411    -0.31000
O1418       O  0.70821633  0.85545001  0.61741950    -0.22900
C1419       C  0.69596051  0.86987172  0.63068408    -0.02900
C1420       C  0.70964908  0.88425863  0.64435111    -0.17300
H1421       H  0.75420342  0.89899383  0.66076441     0.20700
H1422       H  0.74871977  0.83744605  0.59903210     0.19100
H1423       H  0.79914815  0.84128731  0.60129912     0.19000
H1424       H  0.70409447  0.89729385  0.65668808     0.14900
C1425       C  0.62798852  0.88881777  0.48425513     0.30300
C1426       C  0.62880581  0.90188535  0.50484670    -0.36000
C1427       C  0.62762478  0.88919476  0.52562820     0.16300
C1428       C  0.62570422  0.86532219  0.52607335     0.22100
C1429       C  0.62488971  0.85229401  0.50552768    -0.34100
C1430       C  0.62615874  0.86494472  0.48480039     0.16200
O1431       O  0.62875681  0.89702909  0.46287488    -0.26200
C1432       C  0.62744000  0.87814053  0.44960527     0.06000
C1433       C  0.62585367  0.85770091  0.46232017    -0.31000
O1434       O  0.62502742  0.85694619  0.54734403    -0.22900
C1435       C  0.62659593  0.87565081  0.56078218    -0.02900
C1436       C  0.62820915  0.89624194  0.54823557    -0.17300
H1437       H  0.63030724  0.92060200  0.50467651     0.20700
H1438       H  0.62344340  0.83357336  0.50569758     0.19100
H1439       H  0.62450677  0.84009657  0.45590460     0.19000
H1440       H  0.62970624  0.91377034  0.55482135     0.14900
C1441       C  0.27288676  0.88203410  0.63151929     0.30300
C1442       C  0.25294970  0.89117315  0.64202237    -0.36000
C1443       C  0.23174687  0.88261206  0.63377019     0.16300
C1444       C  0.23018414  0.86655523  0.61603501     0.22100
C1445       C  0.25014579  0.85709268  0.60581158    -0.34100
C1446       C  0.27138061  0.86529962  0.61441390     0.16200
O1447       O  0.29450934  0.88743444  0.63666617    -0.26200
C1448       C  0.30696375  0.87367539  0.62297158     0.06000
C1449       C  0.29355873  0.85944056  0.60884927    -0.31000
O1450       O  0.20851413  0.86143531  0.61072122    -0.22900
C1451       C  0.19615783  0.87407716  0.62555752    -0.02900
C1452       C  0.20964672  0.88746034  0.64038616    -0.17300
H1453       H  0.25390526  0.90394026  0.65576732     0.20700
H1454       H  0.24919272  0.84415292  0.59222913     0.19100
H1455       H  0.29936406  0.84673919  0.59627899     0.19000
H1456       H  0.20393129  0.89924980  0.65385454     0.14900
C1457       C  0.38389144  0.87793821  0.72831986     0.30300
C1458       C  0.39476513  0.88613181  0.74853528    -0.36000
C1459       C  0.38503874  0.87881977  0.76961914     0.16300
C1460       C  0.36558063  0.86489714  0.77075087     0.22100
C1461       C  0.35493697  0.85639181  0.75053339    -0.34100
C1462       C  0.36502253  0.86322516  0.72944681     0.16200
O1463       O  0.39001288  0.88269123  0.70678071    -0.26200
C1464       C  0.37520446  0.87045532  0.69396046     0.06000
C1465       C  0.35933768  0.85790353  0.70709286    -0.31000
O1466       O  0.35904594  0.86071789  0.79229612    -0.22900
C1467       C  0.37479552  0.87172731  0.80511327    -0.02900
C1468       C  0.39146107  0.88318364  0.79196215    -0.17300
H1469       H  0.40981234  0.89734196  0.74786837     0.20700
H1470       H  0.33991853  0.84514484  0.75120273     0.19100
H1471       H  0.34537765  0.84690593  0.70101150     0.19000
H1472       H  0.40593966  0.89350514  0.79801949     0.14900
C1473       C  0.52259058  0.85966192  0.62830275     0.30300
C1474       C  0.50251321  0.84588823  0.62869985    -0.36000
C1475       C  0.48137324  0.85781388  0.62674871     0.16300
C1476       C  0.48009464  0.88163227  0.62448435     0.22100
C1477       C  0.50015360  0.89538341  0.62400910    -0.34100
C1478       C  0.52126716  0.88347914  0.62607383     0.16200
O1479       O  0.54416702  0.85219389  0.62997409    -0.26200
C1480       C  0.55678774  0.87149095  0.62885966     0.06000
C1481       C  0.54347417  0.89148139  0.62645573    -0.31000
O1482       O  0.45854907  0.88921251  0.62334614    -0.22900
C1483       C  0.44584888  0.87002177  0.62493531    -0.02900
C1484       C  0.45909195  0.84993587  0.62701224    -0.17300
H1485       H  0.50331485  0.82721879  0.63055651     0.20700
H1486       H  0.49934170  0.91407058  0.62234364     0.19100
H1487       H  0.54933583  0.90926820  0.62506100     0.19000
H1488       H  0.45314694  0.83220651  0.62873897     0.14900
C1489       C  0.38840821  0.87360409  0.22795391     0.30300
C1490       C  0.39676716  0.86259461  0.24800108    -0.36000
C1491       C  0.38872175  0.87150398  0.26917339     0.16300
C1492       C  0.37408971  0.89044418  0.27055164     0.22100
C1493       C  0.36563821  0.90138159  0.25051946    -0.34100
C1494       C  0.37308742  0.89199636  0.22934789     0.16200
O1495       O  0.39271764  0.86738698  0.20635077    -0.26200
C1496       C  0.37961492  0.88167364  0.19382981     0.06000
C1497       C  0.36700107  0.89732717  0.20716410    -0.31000
O1498       O  0.36875162  0.89585415  0.29212021    -0.22900
C1499       C  0.37970269  0.87987762  0.30466749    -0.02900
C1500       C  0.39234616  0.86421773  0.29136360    -0.17300
H1501       H  0.40821207  0.84772333  0.24713069     0.20700
H1502       H  0.35360597  0.91578521  0.25138214     0.19100
H1503       H  0.35494808  0.91050956  0.20132469     0.19000
H1504       H  0.40279151  0.84974370  0.29723034     0.14900
C1505       C  0.48100130  0.87076832  0.37469585     0.30300
C1506       C  0.50099807  0.85691564  0.37471671    -0.36000
C1507       C  0.52214741  0.86876324  0.37625987     0.16300
C1508       C  0.52358447  0.89263642  0.37757744     0.22100
C1509       C  0.50353723  0.90654370  0.37739302    -0.34100
C1510       C  0.48231772  0.89465728  0.37594245     0.16200
O1511       O  0.45946924  0.86319084  0.37402060    -0.26200
C1512       C  0.44674102  0.88242160  0.37485878     0.06000
C1513       C  0.45998898  0.90258499  0.37596425    -0.31000
O1514       O  0.54522073  0.89998638  0.37906130    -0.22900
C1515       C  0.55772687  0.88054537  0.37870199    -0.02900
C1516       C  0.54429133  0.86060249  0.37696999    -0.17300
H1517       H  0.50010780  0.83817842  0.37383958     0.20700
H1518       H  0.50441675  0.92526778  0.37851702     0.19100
H1519       H  0.45403148  0.92037317  0.37696847     0.19000
H1520       H  0.55003180  0.84272712  0.37627559     0.14900
C1521       C  0.37521879  0.88659803  0.52091898     0.30300
C1522       C  0.37325888  0.90090118  0.50128928    -0.36000
C1523       C  0.37408369  0.88959436  0.47972706     0.16300
C1524       C  0.37662866  0.86586062  0.47764353     0.22100
C1525       C  0.37854281  0.85157735  0.49724646    -0.34100
C1526       C  0.37776516  0.86287274  0.51877474     0.16200
O1527       O  0.37479677  0.89342455  0.54277600    -0.26200
C1528       C  0.37708547  0.87380017  0.55474364     0.06000
C1529       C  0.37905240  0.85425826  0.54071750    -0.31000
O1530       O  0.37737890  0.85897265  0.45584657    -0.22900
C1531       C  0.37534572  0.87853433  0.44377434    -0.02900
C1532       C  0.37314874  0.89814992  0.45770035    -0.17300
H1533       H  0.37131170  0.91952528  0.50272580     0.20700
H1534       H  0.38060205  0.83296553  0.49580728     0.19100
H1535       H  0.38096145  0.83632272  0.54595662     0.19000
H1536       H  0.37143500  0.91607361  0.45235551     0.14900
C1537       C  0.88780718  0.35954097  0.72189662     0.30300
C1538       C  0.89628701  0.34873671  0.74202546    -0.36000
C1539       C  0.88914769  0.35847887  0.76318288     0.16300
C1540       C  0.87511822  0.37787413  0.76443287     0.22100
C1541       C  0.86635521  0.38845729  0.74433771    -0.34100
C1542       C  0.87302660  0.37836990  0.72322525     0.16200
O1543       O  0.89211958  0.35326935  0.70028491    -0.26200
C1544       C  0.87952884  0.36798244  0.68771253     0.06000
C1545       C  0.86722465  0.38389710  0.70102326    -0.31000
O1546       O  0.87093241  0.38431151  0.78598482    -0.22900
C1547       C  0.88207097  0.36859854  0.79871803    -0.02900
C1548       C  0.89360366  0.35201450  0.78549981    -0.17300
H1549       H  0.90748698  0.33367586  0.74124805     0.20700
H1550       H  0.85495619  0.40337175  0.74511870     0.19100
H1551       H  0.85591828  0.39770067  0.69512499     0.19000
H1552       H  0.90389810  0.33748502  0.79149010     0.14900
C1553       C  0.87760072  0.26563751  0.60359949     0.30300
C1554       C  0.88538761  0.24581609  0.59174554    -0.36000
C1555       C  0.87885077  0.22441187  0.60129347     0.16300
C1556       C  0.86590616  0.22266430  0.62137099     0.22100
C1557       C  0.85757754  0.24247584  0.63286229    -0.34100
C1558       C  0.86376061  0.26387754  0.62307397     0.16200
O1559       O  0.88273654  0.28733096  0.59847036    -0.26200
C1560       C  0.87162075  0.29962449  0.61454769     0.06000
C1561       C  0.85933812  0.28600882  0.63020107    -0.31000
O1562       O  0.86305024  0.20098318  0.62805232    -0.22900
C1563       C  0.87393733  0.18866938  0.61182896    -0.02900
C1564       C  0.88392257  0.20227893  0.59460726    -0.17300
H1565       H  0.89616867  0.24700340  0.57641923     0.20700
H1566       H  0.84735666  0.24128799  0.64856873     0.19100
H1567       H  0.84953431  0.29158904  0.64522212     0.19000
H1568       H  0.89405074  0.19669029  0.57980734     0.14900
C1569       C  0.86075264  0.37022260  0.22240770     0.30300
C1570       C  0.84924809  0.36332979  0.24274495    -0.36000
C1571       C  0.85981794  0.36985182  0.26370268     0.16300
C1572       C  0.88052020  0.38188477  0.26457126     0.22100
C1573       C  0.89182534  0.38905891  0.24427478    -0.34100
C1574       C  0.88100874  0.38298976  0.22335678     0.16200
O1575       O  0.85405122  0.36600395  0.20091000    -0.26200
C1576       C  0.86999830  0.37661661  0.18803568     0.06000
C1577       C  0.88708975  0.38757482  0.20102313    -0.31000
O1578       O  0.88756080  0.38576194  0.28597882    -0.22900
C1579       C  0.87098008  0.37642936  0.29900702    -0.02900
C1580       C  0.85321487  0.36635437  0.28613090    -0.17300
H1581       H  0.83315428  0.35366834  0.24226182     0.20700
H1582       H  0.90786208  0.39881501  0.24476445     0.19100
H1583       H  0.90199030  0.39718870  0.19484446     0.19000
H1584       H  0.83787621  0.35752625  0.29240822     0.14900
C1585       C  0.86486978  0.37670245  0.47225595     0.30300
C1586       C  0.85124574  0.37683550  0.49241803    -0.36000
C1587       C  0.86336678  0.37514806  0.51343905     0.16300
C1588       C  0.88725084  0.37350289  0.51455127     0.22100
C1589       C  0.90087673  0.37336370  0.49438260    -0.34100
C1590       C  0.88875043  0.37500216  0.47335229     0.16200
O1591       O  0.85714456  0.37795988  0.45077504    -0.26200
C1592       C  0.87631363  0.37707889  0.43794823     0.06000
C1593       C  0.89651127  0.37519649  0.45103613    -0.31000
O1594       O  0.89494107  0.37193561  0.53603250    -0.22900
C1595       C  0.87573390  0.37250492  0.54882114    -0.02900
C1596       C  0.85556112  0.37452408  0.53571896    -0.17300
H1597       H  0.83251312  0.37806772  0.49175146     0.20700
H1598       H  0.91959879  0.37198425  0.49504333     0.19100
H1599       H  0.91425358  0.37404218  0.44497348     0.19000
H1600       H  0.83778713  0.37532995  0.54174665     0.14900
C1601       C  0.88468398  0.72251503  0.62449933     0.30300
C1602       C  0.89473065  0.74252872  0.61507332    -0.36000
C1603       C  0.88599362  0.76369918  0.62318805     0.16300
C1604       C  0.86882801  0.76519466  0.63982534     0.22100
C1605       C  0.85837236  0.74509338  0.64893776    -0.34100
C1606       C  0.86685575  0.72381773  0.64045391     0.16200
O1607       O  0.89062541  0.70099649  0.61959156    -0.26200
C1608       C  0.87617723  0.68821457  0.63219361     0.06000
C1609       C  0.86083273  0.70142586  0.64542990    -0.31000
O1610       O  0.86383685  0.78692254  0.64527196    -0.22900
C1611       C  0.87775529  0.79935758  0.63162734    -0.02900
C1612       C  0.89175768  0.78583260  0.61742892    -0.17300
H1613       H  0.90847114  0.74164521  0.60230555     0.20700
H1614       H  0.84465073  0.74597609  0.66172776     0.19100
H1615       H  0.84762460  0.69539640  0.65733754     0.19000
H1616       H  0.90447614  0.79153636  0.60484633     0.14900
C1617       C  0.87545494  0.60771591  0.73422750     0.30300
C1618       C  0.86764172  0.59630821  0.75423973    -0.36000
C1619       C  0.87358749  0.60667938  0.77542202     0.16300
C1620       C  0.88597069  0.62713543  0.77683504     0.22100
C1621       C  0.89422984  0.63829292  0.75681910    -0.34100
C1622       C  0.88868192  0.62764700  0.73562778     0.16200
O1623       O  0.87119017  0.60149057  0.71263263    -0.26200
C1624       C  0.88226495  0.61733440  0.70006706     0.06000
C1625       C  0.89360615  0.63394680  0.71338105    -0.31000
O1626       O  0.88867502  0.63425218  0.79842631    -0.22900
C1627       C  0.87822134  0.61792306  0.81096517    -0.02900
C1628       C  0.86867151  0.60026562  0.79760946    -0.17300
H1629       H  0.85745244  0.58056432  0.75334844     0.20700
H1630       H  0.90412259  0.65422735  0.75769799     0.19100
H1631       H  0.90328525  0.64891373  0.70747720     0.19000
H1632       H  0.85908129  0.58520453  0.80341315     0.14900
C1633       C  0.89415352  0.51487074  0.62667928     0.30300
C1634       C  0.90785711  0.49463617  0.62588528    -0.36000
C1635       C  0.89567236  0.47351976  0.62435653     0.16300
C1636       C  0.87173555  0.47252796  0.62367786     0.22100
C1637       C  0.85814198  0.49261500  0.62450816    -0.34100
C1638       C  0.87024382  0.51356973  0.62599431     0.16200
O1639       O  0.90163543  0.53654217  0.62799851    -0.26200
C1640       C  0.88216743  0.54907805  0.62814445     0.06000
C1641       C  0.86220270  0.53565610  0.62691197    -0.31000
O1642       O  0.86380128  0.45120053  0.62212549    -0.22900
C1643       C  0.88280878  0.43816555  0.62179922    -0.02900
C1644       C  0.90323527  0.45105293  0.62316695    -0.17300
H1645       H  0.92662073  0.49530483  0.62636037     0.20700
H1646       H  0.83937861  0.49194726  0.62395468     0.19100
H1647       H  0.84430861  0.54139198  0.62667775     0.19000
H1648       H  0.92094966  0.44479122  0.62323378     0.14900
C1649       C  0.87970345  0.64043625  0.27704899     0.30300
C1650       C  0.88839440  0.65132482  0.25706218    -0.36000
C1651       C  0.88011112  0.64281668  0.23578271     0.16300
C1652       C  0.86477848  0.62447345  0.23425807     0.22100
C1653       C  0.85573355  0.61389691  0.25422399    -0.34100
C1654       C  0.86360287  0.62276305  0.27548637     0.16200
O1655       O  0.88522044  0.64542023  0.29873746    -0.26200
C1656       C  0.87210376  0.63106295  0.31116609     0.06000
C1657       C  0.85821924  0.61668510  0.29765101    -0.31000
O1658       O  0.86009649  0.61870962  0.21260881    -0.22900
C1659       C  0.87220812  0.63386464  0.20011445    -0.02900
C1660       C  0.88486308  0.64939049  0.21356527    -0.17300
H1661       H  0.90075039  0.66542601  0.25803177     0.20700
H1662       H  0.84344005  0.59973708  0.25324911     0.19100
H1663       H  0.84624299  0.60340466  0.30338049     0.19000
H1664       H  0.89632527  0.66308616  0.20777553     0.14900
C1665       C  0.86216497  0.52396953  0.36965368     0.30300
C1666       C  0.84842323  0.50399734  0.36725263    -0.36000
C1667       C  0.86036917  0.48277118  0.36713977     0.16300
C1668       C  0.88420540  0.48131233  0.36912052     0.22100
C1669       C  0.89796682  0.50129228  0.37120124    -0.34100
C1670       C  0.88601824  0.52250271  0.37140740     0.16200
O1671       O  0.85456161  0.54551230  0.37119467    -0.26200
C1672       C  0.87379873  0.55800853  0.37387856     0.06000
C1673       C  0.89390516  0.54463050  0.37401487    -0.31000
O1674       O  0.89168462  0.45968693  0.36946857    -0.22900
C1675       C  0.87240446  0.44710684  0.36769414    -0.02900
C1676       C  0.85238451  0.46053459  0.36610485    -0.17300
H1677       H  0.82970027  0.50491825  0.36605781     0.20700
H1678       H  0.91664081  0.50033829  0.37299773     0.19100
H1679       H  0.91166206  0.55035128  0.37621138     0.19000
H1680       H  0.83456612  0.45473582  0.36480081     0.14900
C1681       C  0.86388267  0.61930289  0.52721175     0.30300
C1682       C  0.84957943  0.62037611  0.50749280    -0.36000
C1683       C  0.86102330  0.62018324  0.48597835     0.16300
C1684       C  0.88487064  0.61886685  0.48400790     0.22100
C1685       C  0.89913075  0.61756501  0.50368621    -0.34100
C1686       C  0.88771618  0.61792146  0.52515510     0.16200
O1687       O  0.85700241  0.61998441  0.54906326    -0.26200
C1688       C  0.87672219  0.61906651  0.56108655     0.06000
C1689       C  0.89634410  0.61769711  0.54711205    -0.31000
O1690       O  0.89196058  0.61966836  0.46227108    -0.22900
C1691       C  0.87241791  0.62154049  0.45011171    -0.02900
C1692       C  0.85260788  0.62187647  0.46393307    -0.17300
H1693       H  0.83089048  0.62168581  0.50883255     0.20700
H1694       H  0.91784960  0.61675869  0.50235878     0.19100
H1695       H  0.91435704  0.61686988  0.55239820     0.19000
H1696       H  0.83469000  0.62353262  0.45852565     0.14900
C1697       C  0.38171746  0.13059760  0.72583098     0.30300
C1698       C  0.38661952  0.14323584  0.74607357    -0.36000
C1699       C  0.38141458  0.13212106  0.76709220     0.16300
C1700       C  0.37157950  0.11029109  0.76811120     0.22100
C1701       C  0.36699899  0.09753779  0.74789494    -0.34100
C1702       C  0.37263462  0.10845807  0.72691196     0.16200
O1703       O  0.38483392  0.13773402  0.70430657    -0.26200
C1704       C  0.37798965  0.11978069  0.69149198     0.06000
C1705       C  0.37034913  0.10104627  0.70461167    -0.31000
O1706       O  0.36744120  0.10352171  0.78956645    -0.22900
C1707       C  0.37512622  0.12106225  0.80241834    -0.02900
C1708       C  0.38411476  0.13928262  0.78945572    -0.17300
H1709       H  0.39394114  0.16051494  0.74547691     0.20700
H1710       H  0.35952474  0.08032481  0.74848410     0.19100
H1711       H  0.36354009  0.08462248  0.69855164     0.19000
H1712       H  0.39116398  0.15555832  0.79564193     0.14900
C1713       C  0.22969938  0.13452984  0.62089649     0.30300
C1714       C  0.24971691  0.14385232  0.61067340    -0.36000
C1715       C  0.27090656  0.13501805  0.61874481     0.16300
C1716       C  0.27231511  0.11777928  0.63532561     0.22100
C1717       C  0.25230423  0.10885353  0.64595622    -0.34100
C1718       C  0.23111465  0.11808951  0.63826896     0.16200
O1719       O  0.20808656  0.13956535  0.61530544    -0.26200
C1720       C  0.19552069  0.12659528  0.62965809     0.06000
C1721       C  0.20886981  0.11302530  0.64448020    -0.31000
O1722       O  0.29389103  0.11125333  0.63938311    -0.22900
C1723       C  0.30641233  0.12485234  0.62557276    -0.02900
C1724       C  0.29309845  0.14009749  0.61247606    -0.17300
H1725       H  0.24882383  0.15689171  0.59719260     0.20700
H1726       H  0.25318090  0.09549332  0.65911943     0.19100
H1727       H  0.20299470  0.10052868  0.65720132     0.19000
H1728       H  0.29893561  0.15261833  0.59975983     0.14900
C1729       C  0.36244321  0.12126588  0.22589840     0.30300
C1730       C  0.35419264  0.11128075  0.24649064    -0.36000
C1731       C  0.36301591  0.12063657  0.26715351     0.16300
C1732       C  0.37844615  0.13895973  0.26760091     0.22100
C1733       C  0.38699699  0.14870107  0.24699073    -0.34100
C1734       C  0.37860633  0.13895248  0.22630803     0.16200
O1735       O  0.35654013  0.11521335  0.20461757    -0.26200
C1736       C  0.36946240  0.12887932  0.19127366     0.06000
C1737       C  0.38361713  0.14389267  0.20376755    -0.31000
O1738       O  0.38400726  0.14524740  0.28891961    -0.22900
C1739       C  0.37232685  0.13043468  0.30221684    -0.02900
C1740       C  0.35908073  0.11468407  0.28964563    -0.17300
H1741       H  0.34188250  0.09710494  0.24640753     0.20700
H1742       H  0.39944000  0.16276102  0.24707158     0.19100
H1743       H  0.39554339  0.15679651  0.19714684     0.19000
H1744       H  0.34797853  0.10102930  0.29618997     0.14900
C1745       C  0.37367819  0.11698519  0.47505889     0.30300
C1746       C  0.37371732  0.10218464  0.49438830    -0.36000
C1747       C  0.37286537  0.11304378  0.51614348     0.16300
C1748       C  0.37207329  0.13684565  0.51871432     0.22100
C1749       C  0.37185624  0.15165917  0.49935769    -0.34100
C1750       C  0.37269996  0.14078720  0.47757345     0.16200
O1751       O  0.37466058  0.11051024  0.45315182    -0.26200
C1752       C  0.37428627  0.13038895  0.44141983     0.06000
C1753       C  0.37302362  0.14983565  0.45569512    -0.31000
O1754       O  0.37201708  0.14327198  0.54068534    -0.22900
C1755       C  0.37269184  0.12332906  0.55232523    -0.02900
C1756       C  0.37316159  0.10393832  0.53795756    -0.17300
H1757       H  0.37454935  0.08350947  0.49258567     0.20700
H1758       H  0.37129669  0.17034326  0.50116556     0.19100
H1759       H  0.37247463  0.16792460  0.45067734     0.19000
H1760       H  0.37404574  0.08583604  0.54288415     0.14900
C1761       C  0.72934272  0.11304574  0.60929808     0.30300
C1762       C  0.74914425  0.10325911  0.59909278    -0.36000
C1763       C  0.77049386  0.11192033  0.60684417     0.16300
C1764       C  0.77228660  0.12864869  0.62391247     0.22100
C1765       C  0.75244611  0.13879039  0.63380788    -0.34100
C1766       C  0.73104793  0.13049588  0.62564197     0.16200
O1767       O  0.70767287  0.10742494  0.60467517    -0.26200
C1768       C  0.69531368  0.12176211  0.61786231     0.06000
C1769       C  0.70887401  0.13662647  0.63119684    -0.31000
O1770       O  0.79404518  0.13346008  0.62915927    -0.22900
C1771       C  0.80624813  0.11997515  0.61491393    -0.02900
C1772       C  0.79255594  0.10634298  0.60051715    -0.17300
H1773       H  0.74797795  0.08984125  0.58600095     0.20700
H1774       H  0.75361269  0.15218589  0.64692400     0.19100
H1775       H  0.70319453  0.14972862  0.64340658     0.19000
H1776       H  0.79809784  0.09376514  0.58770844     0.14900
C1777       C  0.61629615  0.12624590  0.76309458     0.30300
C1778       C  0.60762947  0.13722763  0.74315775    -0.36000
C1779       C  0.61570258  0.12856466  0.72188954     0.16300
C1780       C  0.63081489  0.11001760  0.72033137     0.22100
C1781       C  0.63976272  0.09929199  0.74025562    -0.34100
C1782       C  0.63210799  0.10829299  0.76151320     0.16200
O1783       O  0.61139628  0.13172136  0.78477235    -0.26200
C1784       C  0.62456619  0.11735702  0.79715370     0.06000
C1785       C  0.63790734  0.10249143  0.78365040    -0.31000
O1786       O  0.63573171  0.10448361  0.69869151    -0.22900
C1787       C  0.62396014  0.11995666  0.68626313    -0.02900
C1788       C  0.61128433  0.13546072  0.69972640    -0.17300
H1789       H  0.59563603  0.15165306  0.74416433     0.20700
H1790       H  0.65201078  0.08508237  0.73925187     0.19100
H1791       H  0.65006290  0.08935063  0.78936431     0.19000
H1792       H  0.60024625  0.14953669  0.69397371     0.14900
C1793       C  0.47945126  0.13012958  0.61721595     0.30300
C1794       C  0.49941549  0.14397172  0.61650422    -0.36000
C1795       C  0.52059286  0.13206345  0.61597962     0.16300
C1796       C  0.52210152  0.10815491  0.61622148     0.22100
C1797       C  0.50207781  0.09427099  0.61685397    -0.34100
C1798       C  0.48083102  0.10620896  0.61731496     0.16200
O1799       O  0.45791298  0.13771503  0.61799245    -0.26200
C1800       C  0.44525311  0.11844894  0.61854563     0.06000
C1801       C  0.45854587  0.09827268  0.61813421    -0.31000
O1802       O  0.54378339  0.10075193  0.61604186    -0.22900
C1803       C  0.55623086  0.12020050  0.61560338    -0.02900
C1804       C  0.54272165  0.14018902  0.61549970    -0.17300
H1805       H  0.49849573  0.16272934  0.61646721     0.20700
H1806       H  0.50300324  0.07551662  0.61708780     0.19100
H1807       H  0.45264962  0.08044855  0.61854355     0.19000
H1808       H  0.54841363  0.15808692  0.61538509     0.14900
C1809       C  0.63557567  0.13953479  0.22081824     0.30300
C1810       C  0.64205354  0.15053549  0.24157653    -0.36000
C1811       C  0.63462881  0.13978319  0.26213160     0.16300
C1812       C  0.62218354  0.11931369  0.26229831     0.22100
C1813       C  0.61546494  0.10847598  0.24156005    -0.34100
C1814       C  0.62239821  0.11952386  0.22102193     0.16200
O1815       O  0.64035223  0.14668144  0.19957044    -0.26200
C1816       C  0.62968415  0.13126791  0.18608968     0.06000
C1817       C  0.61817037  0.11407928  0.19845045    -0.31000
O1818       O  0.61742608  0.11208925  0.28349537    -0.22900
C1819       C  0.62659559  0.12836069  0.29706671    -0.02900
C1820       C  0.63742445  0.14605828  0.28474555    -0.17300
H1821       H  0.65197178  0.16647555  0.24169343     0.20700
H1822       H  0.60532639  0.09267390  0.24144189     0.19100
H1823       H  0.60827944  0.09960020  0.19171110     0.19000
H1824       H  0.64632030  0.16115219  0.29151651     0.14900
C1825       C  0.47803490  0.11806623  0.36927770     0.30300
C1826       C  0.49771492  0.10372915  0.36842275    -0.36000
C1827       C  0.51921232  0.11512670  0.36799141     0.16300
C1828       C  0.52121687  0.13899372  0.36833542     0.22100
C1829       C  0.50152942  0.15333357  0.36926543    -0.34100
C1830       C  0.48002644  0.14193301  0.36973701     0.16200
O1831       O  0.45625219  0.11108649  0.36969191    -0.26200
C1832       C  0.44411740  0.13072169  0.37048406     0.06000
C1833       C  0.45798297  0.15048273  0.37057226    -0.31000
O1834       O  0.54301408  0.14595707  0.36774964    -0.22900
C1835       C  0.55513427  0.12630098  0.36704623    -0.02900
C1836       C  0.54124052  0.10655892  0.36719674    -0.17300
H1837       H  0.49635478  0.08500248  0.36809256     0.20700
H1838       H  0.50288624  0.17206014  0.36958111     0.19100
H1839       H  0.45258675  0.16847149  0.37106721     0.19000
H1840       H  0.54661066  0.08855967  0.36679922     0.14900
C1841       C  0.62588132  0.13340089  0.51311456     0.30300
C1842       C  0.62469532  0.14727295  0.49317549    -0.36000
C1843       C  0.62466142  0.13540105  0.47193704     0.16300
C1844       C  0.62578006  0.11151991  0.47032021     0.22100
C1845       C  0.62688136  0.09762608  0.49028630    -0.34100
C1846       C  0.62685635  0.10950749  0.51155266     0.16200
O1847       O  0.62598909  0.14084185  0.53476810    -0.26200
C1848       C  0.62696457  0.12144446  0.54722833     0.06000
C1849       C  0.62754599  0.10143644  0.53371980    -0.31000
O1850       O  0.62578363  0.10415896  0.44860928    -0.22900
C1851       C  0.62460563  0.12362038  0.43623147    -0.02900
C1852       C  0.62381943  0.14354109  0.44983741    -0.17300
H1853       H  0.62385229  0.16600919  0.49414580     0.20700
H1854       H  0.62770475  0.07888949  0.48931832     0.19100
H1855       H  0.62823256  0.08356111  0.53944144     0.19000
H1856       H  0.62295549  0.16144074  0.44421278     0.14900
C1857       C  0.11913598  0.61217835  0.73170174     0.30300
C1858       C  0.11091998  0.60041595  0.75140922    -0.36000
C1859       C  0.11843229  0.60910236  0.77290376     0.16300
C1860       C  0.13259115  0.62833935  0.77478617     0.22100
C1861       C  0.14117933  0.63975391  0.75513548    -0.34100
C1862       C  0.13408652  0.63079322  0.73371053     0.16200
O1863       O  0.11427109  0.60721772  0.70988074    -0.26200
C1864       C  0.12664989  0.62258841  0.69790700     0.06000
C1865       C  0.13940283  0.63758437  0.71176390    -0.31000
O1866       O  0.13656719  0.63424112  0.79647624    -0.22900
C1867       C  0.12521767  0.61834679  0.80870924    -0.02900
C1868       C  0.11374285  0.60209769  0.79503540    -0.17300
H1869       H  0.09945789  0.58560509  0.75007797     0.20700
H1870       H  0.15254004  0.65464391  0.75647011     0.19100
H1871       H  0.15069521  0.65159319  0.70639544     0.19000
H1872       H  0.10297224  0.58776326  0.80060188     0.14900
C1873       C  0.12038117  0.72776316  0.62059336     0.30300
C1874       C  0.11187038  0.74784379  0.60980167    -0.36000
C1875       C  0.11940274  0.76898260  0.61918365     0.16300
C1876       C  0.13398603  0.77035833  0.63815558     0.22100
C1877       C  0.14294638  0.75025320  0.64862672    -0.34100
C1878       C  0.13572455  0.72907367  0.63896952     0.16200
O1879       O  0.11527771  0.70618887  0.61489395    -0.26200
C1880       C  0.12784349  0.69352202  0.62952809     0.06000
C1881       C  0.14106203  0.70677713  0.64476876    -0.31000
O1882       O  0.13815536  0.79199473  0.64445747    -0.22900
C1883       C  0.12635113  0.80454923  0.62907100    -0.02900
C1884       C  0.11452605  0.79117750  0.61285533    -0.17300
H1885       H  0.10012941  0.74704352  0.59516015     0.20700
H1886       H  0.15466504  0.75105986  0.66328598     0.19100
H1887       H  0.15256144  0.70080190  0.65837443     0.19000
H1888       H  0.10369032  0.79701582  0.59865787     0.14900
C1889       C  0.11431013  0.63322544  0.23207066     0.30300
C1890       C  0.10266987  0.63962533  0.25248327    -0.36000
C1891       C  0.11354439  0.63337820  0.27335571     0.16300
C1892       C  0.13465968  0.62205347  0.27411966     0.22100
C1893       C  0.14607130  0.61524626  0.25371141    -0.34100
C1894       C  0.13496040  0.62106480  0.23284474     0.16200
O1895       O  0.10743285  0.63750299  0.21064993    -0.26200
C1896       C  0.12367138  0.62754941  0.19760699     0.06000
C1897       C  0.14111918  0.61691849  0.21041856    -0.31000
O1898       O  0.14198932  0.61856036  0.29553054    -0.22900
C1899       C  0.12514866  0.62740308  0.30862431    -0.02900
C1900       C  0.10694986  0.63672506  0.29579524    -0.17300
H1901       H  0.08629131  0.64882270  0.25211862     0.20700
H1902       H  0.16244698  0.60604343  0.25407610     0.19100
H1903       H  0.15630350  0.60784816  0.20407432     0.19000
H1904       H  0.09134249  0.64505697  0.30212327     0.14900
C1905       C  0.11783337  0.62460536  0.48216417     0.30300
C1906       C  0.10429052  0.62512574  0.50234451    -0.36000
C1907       C  0.11650616  0.62462250  0.52336143     0.16300
C1908       C  0.14042065  0.62361467  0.52455673     0.22100
C1909       C  0.15399240  0.62295676  0.50432965    -0.34100
C1910       C  0.14175345  0.62352425  0.48325758     0.16200
O1911       O  0.11000307  0.62538959  0.46068334    -0.26200
C1912       C  0.12914563  0.62482859  0.44781453     0.06000
C1913       C  0.14941849  0.62358991  0.46090225    -0.31000
O1914       O  0.14813376  0.62349417  0.54614760    -0.22900
C1915       C  0.12885623  0.62441457  0.55884852    -0.02900
C1916       C  0.10870999  0.62513546  0.54558715    -0.17300
H1917       H  0.08553896  0.62604577  0.50170662     0.20700
H1918       H  0.17275111  0.62223269  0.50496848     0.19100
H1919       H  0.16717888  0.62304120  0.45481064     0.19000
H1920       H  0.09089864  0.62593867  0.55150718     0.14900
C1921       C  0.13292369  0.26974935  0.61980805     0.30300
C1922       C  0.14090794  0.24973140  0.60851239    -0.36000
C1923       C  0.13246268  0.22862057  0.61709625     0.16300
C1924       C  0.11767172  0.22722798  0.63589884     0.22100
C1925       C  0.10935933  0.24726806  0.64694114    -0.34100
C1926       C  0.11735775  0.26841717  0.63798215     0.16200
O1927       O  0.13849860  0.29130664  0.61460423    -0.26200
C1928       C  0.12597144  0.30390569  0.62932531     0.06000
C1929       C  0.11240579  0.29065561  0.64419888    -0.31000
O1930       O  0.11276225  0.20562432  0.64158403    -0.22900
C1931       C  0.12417448  0.19312353  0.62589492    -0.02900
C1932       C  0.13659176  0.20645804  0.61013874    -0.17300
H1933       H  0.15279593  0.25056261  0.59400179     0.20700
H1934       H  0.09745817  0.24643264  0.66144073     0.19100
H1935       H  0.10080646  0.29658935  0.65773250     0.19000
H1936       H  0.14758158  0.20060133  0.59607266     0.14900
C1937       C  0.13687258  0.36662746  0.77577480     0.30300
C1938       C  0.14649884  0.35663354  0.75575049    -0.36000
C1939       C  0.13793418  0.36495849  0.73453400     0.16300
C1940       C  0.12065386  0.38152043  0.73314837     0.22100
C1941       C  0.11130732  0.39177214  0.75313761    -0.34100
C1942       C  0.12028438  0.38387439  0.77431292     0.16200
O1943       O  0.14226250  0.36146666  0.79741699    -0.26200
C1944       C  0.12929951  0.37593993  0.80988921     0.06000
C1945       C  0.11538624  0.39036968  0.79647427    -0.31000
O1946       O  0.11480675  0.38632616  0.71157659    -0.22900
C1947       C  0.12884656  0.37303601  0.69898372    -0.02900
C1948       C  0.14371267  0.35944691  0.71227631    -0.17300
H1949       H  0.15981075  0.34340775  0.75665095     0.20700
H1950       H  0.09806462  0.40506879  0.75223316     0.19100
H1951       H  0.10316622  0.40341758  0.80226824     0.19000
H1952       H  0.15658126  0.34709240  0.70637339     0.14900
C1953       C  0.11695414  0.51994142  0.62932946     0.30300
C1954       C  0.10316155  0.49989161  0.62996414    -0.36000
C1955       C  0.11514885  0.47869592  0.63027249     0.16300
C1956       C  0.13906808  0.47726322  0.63005322     0.22100
C1957       C  0.15286761  0.49732839  0.62948903    -0.34100
C1958       C  0.14087492  0.51853829  0.62910647     0.16200
O1959       O  0.10939134  0.54155628  0.62885578    -0.26200
C1960       C  0.12872287  0.55417467  0.62832336     0.06000
C1961       C  0.14883096  0.54078029  0.62844750    -0.31000
O1962       O  0.14659269  0.45561259  0.63010078    -0.22900
C1963       C  0.12721990  0.44304057  0.63028934    -0.02900
C1964       C  0.10715176  0.45648575  0.63045803    -0.17300
H1965       H  0.08439807  0.50075202  0.63007776     0.20700
H1966       H  0.17162864  0.49646472  0.62923119     0.19100
H1967       H  0.16668292  0.54661245  0.62817011     0.19000
H1968       H  0.08928095  0.45070029  0.63050622     0.14900
C1969       C  0.11428025  0.38460614  0.27572945     0.30300
C1970       C  0.10458209  0.39461343  0.25574341    -0.36000
C1971       C  0.11181794  0.38514944  0.23450559     0.16300
C1972       C  0.12706735  0.36670822  0.23305346     0.22100
C1973       C  0.13706092  0.35697202  0.25300667    -0.34100
C1974       C  0.13028851  0.36682771  0.27420115     0.16200
O1975       O  0.10984179  0.39056775  0.29738899    -0.26200
C1976       C  0.12356812  0.37675893  0.30981094     0.06000
C1977       C  0.13680075  0.36175369  0.29633600    -0.31000
O1978       O  0.13111269  0.36033730  0.21145135    -0.22900
C1979       C  0.11865427  0.37518357  0.19891412    -0.02900
C1980       C  0.10639077  0.39109680  0.21227756    -0.17300
H1981       H  0.09236158  0.40885153  0.25668190     0.20700
H1982       H  0.14937222  0.34281257  0.25206081     0.19100
H1983       H  0.14895944  0.34863289  0.30208978     0.19000
H1984       H  0.09504608  0.40488605  0.20642929     0.14900
C1985       C  0.11572096  0.52281365  0.38227803     0.30300
C1986       C  0.10248658  0.50283628  0.38649223    -0.36000
C1987       C  0.11412032  0.48161637  0.38382557     0.16300
C1988       C  0.13720105  0.48010543  0.37754711     0.22100
C1989       C  0.15046011  0.50008626  0.37346544    -0.34100
C1990       C  0.13882274  0.52130023  0.37608523     0.16200
O1991       O  0.10834110  0.54445471  0.38350560    -0.26200
C1992       C  0.12700767  0.55691924  0.37812099     0.06000
C1993       C  0.14646252  0.54344983  0.37337345    -0.31000
O1994       O  0.14443452  0.45845697  0.37567050    -0.22900
C1995       C  0.12570661  0.44596952  0.38074572    -0.02900
C1996       C  0.10636727  0.45944756  0.38600115    -0.17300
H1997       H  0.08435908  0.50376167  0.39131957     0.20700
H1998       H  0.16853370  0.49915836  0.36844689     0.19100
H1999       H  0.16369726  0.54918179  0.36859775     0.19000
H2000       H  0.08906700  0.45370580  0.39052743     0.14900
C2001       C  0.13648610  0.37364730  0.52564328     0.30300
C2002       C  0.15015798  0.37426034  0.50551178    -0.36000
C2003       C  0.13804045  0.37404068  0.48440559     0.16300
C2004       C  0.11412367  0.37317737  0.48316760     0.22100
C2005       C  0.10045884  0.37245603  0.50330499    -0.34100
C2006       C  0.11257092  0.37275981  0.52442038     0.16200
O2007       O  0.14416432  0.37404205  0.54719315    -0.26200
C2008       C  0.12492459  0.37338127  0.55994157     0.06000
C2009       C  0.10474015  0.37254524  0.54671743    -0.31000
O2010       O  0.10642285  0.37345450  0.46161300    -0.22900
C2011       C  0.12565665  0.37457078  0.44889883    -0.02900
C2012       C  0.14585063  0.37493140  0.46213805    -0.17300
H2013       H  0.16891010  0.37505374  0.50625709     0.20700
H2014       H  0.08169960  0.37188745  0.50256096     0.19100
H2015       H  0.08693856  0.37197010  0.55268200     0.19000
H2016       H  0.16364726  0.37586436  0.45619856     0.14900
C2017       C  0.77374426  0.88793928  0.38775449     0.30300
C2018       C  0.75375519  0.89974438  0.39514414    -0.36000
C2019       C  0.73252506  0.89035094  0.38780219     0.16300
C2020       C  0.73104774  0.87038340  0.37462283     0.22100
C2021       C  0.75101787  0.85878924  0.36695618    -0.34100
C2022       C  0.77222854  0.86850174  0.37380345     0.16200
O2023       O  0.79541329  0.89378077  0.39230508    -0.26200
C2024       C  0.80781420  0.87812560  0.38072364     0.06000
C2025       C  0.79437495  0.86206652  0.36882007    -0.31000
O2026       O  0.70942987  0.86432463  0.37025149    -0.22900
C2027       C  0.69692615  0.88087203  0.38037788    -0.02900
C2028       C  0.71032555  0.89760370  0.39144588    -0.17300
H2029       H  0.75469282  0.91526023  0.40568808     0.20700
H2030       H  0.75008451  0.84339180  0.35623883     0.19100
H2031       H  0.80014822  0.84768623  0.35819279     0.19000
H2032       H  0.70450445  0.91262302  0.40111664     0.14900
C2033       C  0.87948324  0.77363717  0.39397258     0.30300
C2034       C  0.88777285  0.75331431  0.40464320    -0.36000
C2035       C  0.87948099  0.73226382  0.39550219     0.16300
C2036       C  0.86364599  0.73130217  0.37753239     0.22100
C2037       C  0.85561497  0.75156466  0.36669591    -0.34100
C2038       C  0.86434449  0.77253429  0.37542633     0.16200
O2039       O  0.88532709  0.79519305  0.39925122    -0.26200
C2040       C  0.87410676  0.80793333  0.38356039     0.06000
C2041       C  0.86088575  0.79476007  0.36827769    -0.31000
O2042       O  0.85822834  0.70983925  0.37167686    -0.22900
C2043       C  0.87105372  0.69683476  0.38578807    -0.02900
C2044       C  0.88473331  0.70981092  0.40089941    -0.17300
H2045       H  0.90013346  0.75385987  0.41877737     0.20700
H2046       H  0.84371279  0.75099908  0.35217365     0.19100
H2047       H  0.85024877  0.80075718  0.35399573     0.19000
H2048       H  0.89682833  0.70357031  0.41385321     0.14900
C2049       C  0.86866714  0.23125492  0.37662770     0.30300
C2050       C  0.86046191  0.25126736  0.38775804    -0.36000
C2051       C  0.86782662  0.27242865  0.37837378     0.16300
C2052       C  0.88273153  0.27385723  0.35966963     0.22100
C2053       C  0.89065798  0.25380586  0.34828085    -0.34100
C2054       C  0.88282131  0.23260117  0.35734231     0.16200
O2055       O  0.86406542  0.20970168  0.38265127    -0.26200
C2056       C  0.87499886  0.19704953  0.36675964     0.06000
C2057       C  0.88687073  0.21031513  0.35046760    -0.31000
O2058       O  0.88765204  0.29550653  0.35407511    -0.22900
C2059       C  0.87536729  0.30799254  0.36913059    -0.02900
C2060       C  0.86262113  0.29460080  0.38456344    -0.17300
H2061       H  0.84902474  0.25039373  0.40262421     0.20700
H2062       H  0.90199808  0.25468204  0.33334086     0.19100
H2063       H  0.89737828  0.20436830  0.33607599     0.19000
H2064       H  0.85130206  0.30041065  0.39838628     0.14900
C2065       C  0.77110458  0.13233110  0.37641757     0.30300
C2066       C  0.75084139  0.14074710  0.38695903    -0.36000
C2067       C  0.72984941  0.13312890  0.37730345     0.16300
C2068       C  0.72881062  0.11775388  0.35894721     0.22100
C2069       C  0.74910457  0.10959552  0.34817148    -0.34100
C2070       C  0.77012465  0.11771598  0.35744715     0.16200
O2071       O  0.79256775  0.13731875  0.38257142    -0.26200
C2072       C  0.80550320  0.12617343  0.36704315     0.06000
C2073       C  0.79252351  0.11375797  0.35091663    -0.31000
O2074       O  0.70727428  0.11258799  0.35305886    -0.22900
C2075       C  0.69443781  0.12518964  0.36755349    -0.02900
C2076       C  0.70751844  0.13840901  0.38290232    -0.17300
H2077       H  0.75140675  0.15257801  0.40153775     0.20700
H2078       H  0.74854015  0.09791895  0.33346988     0.19100
H2079       H  0.79872869  0.10309061  0.33675158     0.19000
H2080       H  0.70140647  0.14998960  0.39637628     0.14900
C2081       C  0.87798544  0.98160578  0.38456936     0.30300
C2082       C  0.87821903  0.00214223  0.39760575    -0.36000
C2083       C  0.87712773  0.02282694  0.38490004     0.16300
C2084       C  0.87593368  0.02333931  0.36097903     0.22100
C2085       C  0.87565896  0.00275997  0.34790490    -0.34100
C2086       C  0.87674065  0.98202257  0.36064469     0.16200
O2087       O  0.87871876  0.96036039  0.39296968    -0.26200
C2088       C  0.87795255  0.94693060  0.37421729     0.06000
C2089       C  0.87672193  0.95943582  0.35358405    -0.31000
O2090       O  0.87519007  0.04468751  0.35273439    -0.22900
C2091       C  0.87586565  0.05794619  0.37165274    -0.02900
C2092       C  0.87705034  0.04528802  0.39213942    -0.17300
H2093       H  0.87916094  0.00199698  0.41636156     0.20700
H2094       H  0.87467956  0.00290752  0.32915058     0.19100
H2095       H  0.87578133  0.95283290  0.33602147     0.19000
H2096       H  0.87785346  0.05172803  0.40976959     0.14900
C2097       C  0.11956889  0.77273276  0.37084225     0.30300
C2098       C  0.10975009  0.75254303  0.36146835    -0.36000
C2099       C  0.11837229  0.73150762  0.37012179     0.16300
C2100       C  0.13588132  0.73034245  0.38645535     0.22100
C2101       C  0.14539471  0.75055882  0.39618160    -0.34100
C2102       C  0.13636000  0.77162447  0.38792106     0.16200
O2103       O  0.11424103  0.79423687  0.36510586    -0.26200
C2104       C  0.12743656  0.80704810  0.37903411     0.06000
C2105       C  0.14142727  0.79396957  0.39372244    -0.31000
O2106       O  0.14173788  0.70877379  0.39150491    -0.22900
C2107       C  0.12743959  0.69605952  0.37856734    -0.02900
C2108       C  0.11244390  0.70923725  0.36505072    -0.17300
H2109       H  0.09628951  0.75318991  0.34838096     0.20700
H2110       H  0.15883101  0.74991229  0.40929478     0.19100
H2111       H  0.15384263  0.80008685  0.40642881     0.19000
H2112       H  0.09935228  0.70322146  0.35299123     0.14900
C2113       C  0.23138193  0.86857347  0.38376917     0.30300
C2114       C  0.25176796  0.85954050  0.39359415    -0.36000
C2115       C  0.27263025  0.86682376  0.38339061     0.16300
C2116       C  0.27338265  0.88241128  0.36520460     0.22100
C2117       C  0.25301072  0.89106973  0.35510220    -0.34100
C2118       C  0.23216566  0.88334554  0.36492115     0.16200
O2119       O  0.20996860  0.86425790  0.39059707    -0.26200
C2120       C  0.19695349  0.87604655  0.37560493     0.06000
C2121       C  0.20977548  0.88813335  0.35918282    -0.31000
O2122       O  0.29476046  0.88780617  0.35915924    -0.22900
C2123       C  0.30783593  0.87510317  0.37329063    -0.02900
C2124       C  0.29508066  0.86156801  0.38862697    -0.17300
H2125       H  0.25139040  0.84770375  0.40816370     0.20700
H2126       H  0.25339046  0.90303692  0.34063987     0.19100
H2127       H  0.20347486  0.89912648  0.34531338     0.19000
H2128       H  0.30146618  0.85021794  0.40216583     0.14900
C2129       C  0.98103299  0.87848131  0.38935730     0.30300
C2130       C  0.00102974  0.88000503  0.40318332    -0.36000
C2131       C  0.02226129  0.87889052  0.39135785     0.16300
C2132       C  0.02370046  0.87653577  0.36755927     0.22100
C2133       C  0.00370574  0.87505935  0.35372941    -0.34100
C2134       C  0.98247754  0.87609877  0.36556187     0.16200
O2135       O  0.95941653  0.87896451  0.39680046    -0.26200
C2136       C  0.94685376  0.87684902  0.37753756     0.06000
C2137       C  0.96025641  0.87502562  0.35755306    -0.31000
O2138       O  0.04531364  0.87572557  0.36014363    -0.22900
C2139       C  0.05788621  0.87752154  0.37943240    -0.02900
C2140       C  0.04449110  0.87955472  0.39940162    -0.17300
H2141       H  0.00009317  0.88181470  0.42185199     0.20700
H2142       H  0.00464280  0.87313257  0.33507220     0.19100
H2143       H  0.95445783  0.87316932  0.33978031     0.19000
H2144       H  0.05029885  0.88121134  0.41719075     0.14900
C2145       C  0.22865765  0.12176622  0.38201377     0.30300
C2146       C  0.24909279  0.11275518  0.39165553    -0.36000
C2147       C  0.26986831  0.12122727  0.38232202     0.16300
C2148       C  0.27054799  0.13783129  0.36505804     0.22100
C2149       C  0.25008812  0.14650797  0.35508379    -0.34100
C2150       C  0.22928780  0.13765510  0.36408711     0.16200
O2151       O  0.20732597  0.11641384  0.38824478    -0.26200
C2152       C  0.19415252  0.12869334  0.37382918     0.06000
C2153       C  0.20681384  0.14212128  0.35831611    -0.31000
O2154       O  0.29193762  0.14375756  0.35946356    -0.22900
C2155       C  0.30502290  0.13044302  0.37304353    -0.02900
C2156       C  0.29228147  0.11596952  0.38747749    -0.17300
H2157       H  0.24881195  0.10001245  0.40544183     0.20700
H2158       H  0.25036690  0.15922553  0.34127515     0.19100
H2159       H  0.20035712  0.15375284  0.34505304     0.19000
H2160       H  0.29866283  0.10364114  0.40013485     0.14900
C2161       C  0.11401041  0.23033293  0.37191289     0.30300
C2162       C  0.10350738  0.25052845  0.36326216    -0.36000
C2163       C  0.11262940  0.27157127  0.37139542     0.16300
C2164       C  0.13111211  0.27267587  0.38662375     0.22100
C2165       C  0.14123266  0.25248799  0.39570919    -0.34100
C2166       C  0.13182060  0.23145386  0.38792252     0.16200
O2167       O  0.10876200  0.20882054  0.36613940    -0.26200
C2168       C  0.12307990  0.19605874  0.37898958     0.06000
C2169       C  0.13768279  0.20915246  0.39300909    -0.31000
O2170       O  0.13754285  0.29417337  0.39106943    -0.22900
C2171       C  0.12271734  0.30697286  0.37885334    -0.02900
C2172       C  0.10670424  0.29389360  0.36642882    -0.17300
H2173       H  0.08937338  0.24988308  0.35090496     0.20700
H2174       H  0.15556200  0.25313364  0.40783947     0.19100
H2175       H  0.15110540  0.20308823  0.40467744     0.19000
H2176       H  0.09307166  0.29997974  0.35501858     0.14900
C2177       C  0.97827021  0.12831745  0.38477615     0.30300
C2178       C  0.99781120  0.12875459  0.39935425    -0.36000
C2179       C  0.01942230  0.12739776  0.38821062     0.16300
C2180       C  0.02156120  0.12577317  0.36439857     0.22100
C2181       C  0.00208768  0.12539701  0.34986914    -0.34100
C2182       C  0.98055222  0.12672229  0.36098003     0.16200
O2183       O  0.95637242  0.12910288  0.39138676    -0.26200
C2184       C  0.94458457  0.12800759  0.37154287     0.06000
C2185       C  0.95871882  0.12654389  0.35207709    -0.31000
O2186       O  0.04331094  0.12477752  0.35758700    -0.22900
C2187       C  0.05533917  0.12575032  0.37723741    -0.02900
C2188       C  0.04144237  0.12739513  0.39691308    -0.17300
H2189       H  0.99626936  0.12999033  0.41802997     0.20700
H2190       H  0.00363124  0.12411322  0.33119570     0.19100
H2191       H  0.95361821  0.12532410  0.33403588     0.19000
H2192       H  0.04679107  0.12858579  0.41488218     0.14900
C2193       C  0.12857923  0.98020377  0.36431511     0.30300
C2194       C  0.12837405  0.00008336  0.35020580    -0.36000
C2195       C  0.12798666  0.02145666  0.36190741     0.16300
C2196       C  0.12781053  0.02308394  0.38581222     0.22100
C2197       C  0.12815119  0.00326330  0.39987690    -0.34100
C2198       C  0.12853900  0.98195761  0.38820765     0.16200
O2199       O  0.12852540  0.95844881  0.35715390    -0.26200
C2200       C  0.12848294  0.94619837  0.37674237     0.06000
C2201       C  0.12854938  0.95991069  0.39658171    -0.31000
O2202       O  0.12710663  0.04470135  0.39315685    -0.22900
C2203       C  0.12687730  0.05716390  0.37375065    -0.02900
C2204       C  0.12743631  0.04366261  0.35372355    -0.17300
H2205       H  0.12834022  0.99896189  0.33145976     0.20700
H2206       H  0.12795229  0.00438157  0.41862275     0.19100
H2207       H  0.12837505  0.95440686  0.41453818     0.19000
H2208       H  0.12729739  0.04937755  0.33583482     0.14900
loop_ 
_geom_bond_atom_site_label_1 
_geom_bond_atom_site_label_2 
_geom_bond_distance 
_geom_bond_site_symmetry_2 
_ccdc_geom_bond_type 
O1            V9   1.895       .  S
O1           C11   1.263       .  A
O2            V9   1.899       .  S
O2           C12   1.264       .  A
O3            V9   1.905       .  S
O3           C13   1.265       .  A
O4            V9   1.899       .  S
O4           C14   1.263       .  A
O5           V10   1.898       .  S
O5           C14   1.263       .  A
O6           V10   1.891       .  S
O6           C13   1.262       .  A
O7           V10   1.901       .  S
O7           C12   1.264       .  A
O8           V10   1.906       .  S
O8           C11   1.266       .  A
V9           V10   2.085       .  T
C11        C2203   1.467       .  S
C12        C2168   1.463       .  S
C13        C2187   1.464       .  S
C14        C2152   1.463       .  S
O15          V23   1.898       .  S
O15          C25   1.263       .  A
O16          V23   1.899       .  S
O16          C26   1.265       .  A
O17          V23   1.904       .  S
O17          C27   1.265       .  A
O18          V23   1.900       .  S
O18          C28   1.263       .  A
O19          V24   1.898       .  S
O19          C28   1.263       .  A
O20          V24   1.896       .  S
O20          C27   1.262       .  A
O21          V24   1.900       .  S
O21          C26   1.263       .  A
O22          V24   1.903       .  S
O22          C25   1.264       .  A
V23          V24   2.089       .  T
C25        C2104   1.465       .  S
C26        C2200   1.468       .  S
C27        C2139   1.467       .  S
C28        C2120   1.463       .  S
O29          V37   1.897       .  S
O29          C39   1.263       .  A
O30          V37   1.900       .  S
O30          C40   1.265       .  A
O31          V37   1.899       .  S
O31          C41   1.263       .  A
O32          V37   1.897       .  S
O32          C42   1.262       .  A
O33          V38   1.904       .  S
O33          C42   1.265       .  A
O34          V38   1.898       .  S
O34          C41   1.264       .  A
O35          V38   1.900       .  S
O35          C40   1.263       .  A
O36          V38   1.904       .  S
O36          C39   1.265       .  A
V37          V38   2.089       .  T
C39        C2056   1.465       .  S
C40        C2091   1.468       .  S
C41        C2184   1.466       .  S
C42        C2072   1.466       .  S
O43          V51   1.897       .  S
O43          C53   1.263       .  A
O44          V51   1.901       .  S
O44          C54   1.263       .  A
O45          V51   1.909       .  S
O45          C55   1.265       .  A
O46          V51   1.900       .  S
O46          C56   1.264       .  A
O47          V52   1.903       .  S
O47          C56   1.264       .  A
O48          V52   1.897       .  S
O48          C55   1.263       .  A
O49          V52   1.896       .  S
O49          C54   1.263       .  A
O50          V52   1.903       .  S
O50          C53   1.265       .  A
V51          V52   2.089       .  T
C53        C2136   1.467       .  S
C54        C2024   1.461       .  S
C55        C2040   1.470       .  S
C56        C2088   1.469       .  S
O57          V65   1.907       .  S
O57          C67   1.266       .  A
O58          V65   1.901       .  S
O58          C68   1.264       .  A
O59          V65   1.902       .  S
O59          C69   1.264       .  A
O60          V65   1.898       .  S
O60          C70   1.264       .  A
O61          V66   1.903       .  S
O61          C70   1.265       .  A
O62          V66   1.902       .  S
O62          C69   1.264       .  A
O63          V66   1.899       .  S
O63          C68   1.264       .  A
O64          V66   1.894       .  S
O64          C67   1.263       .  A
V65          V66   2.083       .  T
C67        C1995   1.468       .  S
C68        C2171   1.464       .  S
C69        C1976   1.466       .  S
C70        C2011   1.468       .  S
O71          V79   1.907       .  S
O71          C81   1.266       .  A
O72          V79   1.901       .  S
O72          C82   1.263       .  A
O73          V79   1.898       .  S
O73          C83   1.263       .  A
O74          V79   1.903       .  S
O74          C84   1.264       .  A
O75          V80   1.897       .  S
O75          C84   1.263       .  A
O76          V80   1.903       .  S
O76          C83   1.265       .  A
O77          V80   1.899       .  S
O77          C82   1.263       .  A
O78          V80   1.896       .  S
O78          C81   1.264       .  A
V79          V80   2.085       .  T
C81        C1963   1.471       .  S
C82        C1928   1.463       .  S
C83        C2008   1.468       .  S
C84        C1947   1.464       .  S
O85          V93   1.899       .  S
O85          C95   1.264       .  A
O86          V93   1.903       .  S
O86          C96   1.264       .  A
O87          V93   1.904       .  S
O87          C97   1.264       .  A
O88          V93   1.896       .  S
O88          C98   1.264       .  A
O89          V94   1.902       .  S
O89          C98   1.264       .  A
O90          V94   1.898       .  S
O90          C97   1.263       .  A
O91          V94   1.899       .  S
O91          C96   1.264       .  A
O92          V94   1.901       .  S
O92          C95   1.264       .  A
V93          V94   2.089       .  T
C95        C1912   1.468       .  S
C96        C1899   1.467       .  S
C97        C2107   1.465       .  S
C98        C1992   1.467       .  S
O99         V107   1.903       .  S
O99         C109   1.264       .  A
O100        V107   1.907       .  S
O100        C110   1.265       .  A
O101        V107   1.893       .  S
O101        C111   1.263       .  A
O102        V107   1.899       .  S
O102        C112   1.262       .  A
O103        V108   1.899       .  S
O103        C112   1.264       .  A
O104        V108   1.907       .  S
O104        C111   1.265       .  A
O105        V108   1.898       .  S
O105        C110   1.262       .  A
O106        V108   1.901       .  S
O106        C109   1.264       .  A
V107        V108   2.089       .  T
C109       C1960   1.471       .  S
C110       C1880   1.466       .  S
C111       C1915   1.469       .  S
C112       C1864   1.462       .  S
O113        V121   1.893       .  S
O113        C123   1.263       .  A
O114        V121   1.900       .  S
O114        C124   1.264       .  A
O115        V121   1.903       .  S
O115        C125   1.265       .  A
O116        V121   1.899       .  S
O116        C126   1.264       .  A
O117        V122   1.905       .  S
O117        C126   1.264       .  A
O118        V122   1.902       .  S
O118        C125   1.265       .  A
O119        V122   1.904       .  S
O119        C124   1.264       .  A
O120        V122   1.909       .  S
O120        C123   1.266       .  A
V121        V122   2.085       .  T
C123       C1851   1.469       .  S
C124       C1819   1.468       .  S
C125       C1835   1.470       .  S
C126       C2075   1.466       .  S
O127        V135   1.905       .  S
O127        C137   1.265       .  A
O128        V135   1.900       .  S
O128        C138   1.264       .  A
O129        V135   1.903       .  S
O129        C139   1.264       .  A
O130        V135   1.896       .  S
O130        C140   1.264       .  A
O131        V136   1.903       .  S
O131        C140   1.265       .  A
O132        V136   1.898       .  S
O132        C139   1.263       .  A
O133        V136   1.900       .  S
O133        C138   1.263       .  A
O134        V136   1.895       .  S
O134        C137   1.263       .  A
V135        V136   2.085       .  T
C137       C1848   1.468       .  S
C138       C1787   1.464       .  S
C139       C1768   1.464       .  S
C140       C1803   1.467       .  S
O141        V149   1.894       .  S
O141        C151   1.262       .  A
O142        V149   1.900       .  S
O142        C152   1.264       .  A
O143        V149   1.895       .  S
O143        C153   1.263       .  A
O144        V149   1.899       .  S
O144        C154   1.264       .  A
O145        V150   1.904       .  S
O145        C154   1.264       .  A
O146        V150   1.908       .  S
O146        C153   1.266       .  A
O147        V150   1.902       .  S
O147        C152   1.265       .  A
O148        V150   1.905       .  S
O148        C151   1.264       .  A
V149        V150   2.086       .  T
C151       C2155   1.463       .  S
C152       C1832   1.469       .  S
C153       C1752   1.470       .  S
C154       C1739   1.466       .  S
O155        V163   1.901       .  S
O155        C165   1.263       .  A
O156        V163   1.904       .  S
O156        C166   1.265       .  A
O157        V163   1.899       .  S
O157        C167   1.264       .  A
O158        V163   1.905       .  S
O158        C168   1.266       .  A
O159        V164   1.898       .  S
O159        C168   1.263       .  A
O160        V164   1.902       .  S
O160        C167   1.264       .  A
O161        V164   1.896       .  S
O161        C166   1.263       .  A
O162        V164   1.899       .  S
O162        C165   1.263       .  A
V163        V164   2.089       .  T
C165       C1723   1.464       .  S
C166       C1800   1.467       .  S
C167       C1704   1.467       .  S
C168       C1755   1.470       .  S
O169        V177   1.902       .  S
O169        C179   1.264       .  A
O170        V177   1.909       .  S
O170        C180   1.266       .  A
O171        V177   1.901       .  S
O171        C181   1.264       .  A
O172        V177   1.903       .  S
O172        C182   1.265       .  A
O173        V178   1.901       .  S
O173        C182   1.264       .  A
O174        V178   1.907       .  S
O174        C181   1.265       .  A
O175        V178   1.896       .  S
O175        C180   1.263       .  A
O176        V178   1.903       .  S
O176        C179   1.265       .  A
V177        V178   2.084       .  T
C179       C1691   1.470       .  S
C180       C1656   1.468       .  S
C181       C2043   1.470       .  S
C182       C1672   1.470       .  S
O183        V191   1.896       .  S
O183        C193   1.264       .  A
O184        V191   1.902       .  S
O184        C194   1.264       .  A
O185        V191   1.910       .  S
O185        C195   1.266       .  A
O186        V191   1.902       .  S
O186        C196   1.265       .  A
O187        V192   1.905       .  S
O187        C196   1.264       .  A
O188        V192   1.893       .  S
O188        C195   1.264       .  A
O189        V192   1.900       .  S
O189        C194   1.263       .  A
O190        V192   1.906       .  S
O190        C193   1.265       .  A
V191        V192   2.083       .  T
C193       C1688   1.470       .  S
C194       C1624   1.463       .  S
C195       C1640   1.471       .  S
C196       C1608   1.469       .  S
O197        V205   1.896       .  S
O197        C207   1.263       .  A
O198        V205   1.901       .  S
O198        C208   1.264       .  A
O199        V205   1.899       .  S
O199        C209   1.264       .  A
O200        V205   1.904       .  S
O200        C210   1.265       .  A
O201        V206   1.900       .  S
O201        C210   1.264       .  A
O202        V206   1.903       .  S
O202        C209   1.264       .  A
O203        V206   1.898       .  S
O203        C208   1.263       .  A
O204        V206   1.903       .  S
O204        C207   1.265       .  A
V205        V206   2.085       .  T
C207       C1592   1.466       .  S
C208       C1579   1.465       .  S
C209       C2059   1.464       .  S
C210       C1675   1.470       .  S
O211        V219   1.907       .  S
O211        C221   1.265       .  A
O212        V219   1.901       .  S
O212        C222   1.263       .  A
O213        V219   1.898       .  S
O213        C223   1.263       .  A
O214        V219   1.905       .  S
O214        C224   1.265       .  A
O215        V220   1.896       .  S
O215        C224   1.263       .  A
O216        V220   1.901       .  S
O216        C223   1.265       .  A
O217        V220   1.905       .  S
O217        C222   1.265       .  A
O218        V220   1.894       .  S
O218        C221   1.263       .  A
V219        V220   2.085       .  T
C221       C1643   1.468       .  S
C222       C1560   1.466       .  S
C223       C1595   1.466       .  S
C224       C1544   1.465       .  S
O225        V233   1.900       .  S
O225        C235   1.263       .  A
O226        V233   1.894       .  S
O226        C236   1.262       .  A
O227        V233   1.899       .  S
O227        C237   1.264       .  A
O228        V233   1.903       .  S
O228        C238   1.265       .  A
O229        V234   1.896       .  S
O229        C238   1.262       .  A
O230        V234   1.902       .  S
O230        C237   1.265       .  A
O231        V234   1.906       .  S
O231        C236   1.265       .  A
O232        V234   1.899       .  S
O232        C235   1.263       .  A
V233        V234   2.089       .  T
C235       C2123   1.462       .  S
C236       C1512   1.467       .  S
C237       C1531   1.469       .  S
C238       C1499   1.464       .  S
O239        V247   1.895       .  S
O239        C249   1.262       .  A
O240        V247   1.900       .  S
O240        C250   1.265       .  A
O241        V247   1.907       .  S
O241        C251   1.266       .  A
O242        V247   1.900       .  S
O242        C252   1.265       .  A
O243        V248   1.903       .  S
O243        C252   1.264       .  A
O244        V248   1.901       .  S
O244        C251   1.263       .  A
O245        V248   1.898       .  S
O245        C250   1.264       .  A
O246        V248   1.903       .  S
O246        C249   1.264       .  A
V247        V248   2.083       .  T
C249       C1448   1.462       .  S
C250       C1483   1.466       .  S
C251       C1464   1.468       .  S
C252       C1528   1.469       .  S
O253        V261   1.902       .  S
O253        C263   1.264       .  A
O254        V261   1.900       .  S
O254        C264   1.263       .  A
O255        V261   1.909       .  S
O255        C265   1.265       .  A
O256        V261   1.902       .  S
O256        C266   1.265       .  A
O257        V262   1.904       .  S
O257        C266   1.265       .  A
O258        V262   1.899       .  S
O258        C265   1.264       .  A
O259        V262   1.904       .  S
O259        C264   1.265       .  A
O260        V262   1.899       .  S
O260        C263   1.264       .  A
V261        V262   2.084       .  T
C263       C1480   1.468       .  S
C264       C1419   1.467       .  S
C265       C1403   1.469       .  S
C266       C1435   1.471       .  S
O267        V275   1.903       .  S
O267        C277   1.264       .  A
O268        V275   1.905       .  S
O268        C278   1.264       .  A
O269        V275   1.899       .  S
O269        C279   1.263       .  A
O270        V275   1.901       .  S
O270        C280   1.264       .  A
O271        V276   1.898       .  S
O271        C280   1.263       .  A
O272        V276   1.901       .  S
O272        C279   1.265       .  A
O273        V276   1.897       .  S
O273        C278   1.263       .  A
O274        V276   1.901       .  S
O274        C277   1.265       .  A
V275        V276   2.089       .  T
C277       C1432   1.471       .  S
C278       C1384   1.466       .  S
C279       C1515   1.468       .  S
C280       C2027   1.465       .  S
O281        V289   1.894       .  S
O281        C291   1.263       .  A
O282        V289   1.897       .  S
O282        C292   1.263       .  A
O283        V289   1.903       .  S
O283        C293   1.264       .  A
O284        V289   1.900       .  S
O284        C294   1.264       .  A
O285        V290   1.902       .  S
O285        C294   1.265       .  A
O286        V290   1.893       .  S
O286        C293   1.262       .  A
O287        V290   1.899       .  S
O287        C292   1.264       .  A
O288        V290   1.907       .  S
O288        C291   1.265       .  A
V289        V290   2.086       .  T
C291       C1883   1.466       .  S
C292       C1371   1.464       .  S
C293       C1451   1.462       .  S
C294       C1352   1.469       .  S
O295        V303   1.898       .  S
O295        C305   1.263       .  A
O296        V303   1.904       .  S
O296        C306   1.264       .  A
O297        V303   1.896       .  S
O297        C307   1.263       .  A
O298        V303   1.901       .  S
O298        C308   1.264       .  A
O299        V304   1.893       .  S
O299        C308   1.263       .  A
O300        V304   1.899       .  S
O300        C307   1.263       .  A
O301        V304   1.899       .  S
O301        C306   1.264       .  A
O302        V304   1.904       .  S
O302        C305   1.264       .  A
V303        V304   2.089       .  T
C305       C1720   1.465       .  S
C306       C1336   1.471       .  S
C307       C1931   1.462       .  S
C308       C1368   1.464       .  S
O309        V317   1.903       .  S
O309        C319   1.264       .  A
O310        V317   1.902       .  S
O310        C320   1.264       .  A
O311        V317   1.906       .  S
O311        C321   1.265       .  A
O312        V317   1.901       .  S
O312        C322   1.265       .  A
O313        V318   1.904       .  S
O313        C322   1.264       .  A
O314        V318   1.897       .  S
O314        C321   1.263       .  A
O315        V318   1.898       .  S
O315        C320   1.262       .  A
O316        V318   1.901       .  S
O316        C319   1.264       .  A
V317        V318   2.089       .  T
C319       C1339   1.471       .  S
C320       C1771   1.464       .  S
C321       C1563   1.467       .  S
C322       C1320   1.472       .  S
O323        V331   1.899       .  S
O323        C333   1.263       .  A
O324        V331   1.906       .  S
O324        C334   1.265       .  A
O325        V331   1.901       .  S
O325        C335   1.265       .  A
O326        V331   1.907       .  S
O326        C336   1.265       .  A
O327        V332   1.899       .  S
O327        C336   1.264       .  A
O328        V332   1.904       .  S
O328        C335   1.265       .  A
O329        V332   1.898       .  S
O329        C334   1.264       .  A
O330        V332   1.903       .  S
O330        C333   1.264       .  A
V331        V332   2.085       .  T
C333       C1416   1.465       .  S
C334       C1355   1.471       .  S
C335       C1323   1.471       .  S
C336       C1611   1.469       .  S
O337        V345   1.904       .  S
O337        C347   1.264       .  A
O338        V345   1.899       .  S
O338        C348   1.263       .  A
O339        V345   1.895       .  S
O339        C349   1.264       .  A
O340        V345   1.904       .  S
O340        C350   1.264       .  A
O341        V346   1.892       .  S
O341        C350   1.263       .  A
O342        V346   1.899       .  S
O342        C349   1.263       .  A
O343        V346   1.900       .  S
O343        C348   1.264       .  A
O344        V346   1.896       .  S
O344        C347   1.263       .  A
V345        V346   2.090       .  T
C347       C1736   1.464       .  S
C348       C1307   1.467       .  S
C349       C1288   1.464       .  S
C350       C1272   1.463       .  S
O351        V359   1.898       .  S
O351        C361   1.263       .  A
O352        V359   1.903       .  S
O352        C362   1.264       .  A
O353        V359   1.902       .  S
O353        C363   1.263       .  A
O354        V359   1.906       .  S
O354        C364   1.265       .  A
O355        V360   1.893       .  S
O355        C364   1.263       .  A
O356        V360   1.899       .  S
O356        C363   1.263       .  A
O357        V360   1.892       .  S
O357        C362   1.262       .  A
O358        V360   1.902       .  S
O358        C361   1.265       .  A
V359        V360   2.089       .  T
C361       C1259   1.468       .  S
C362       C1243   1.463       .  S
C363       C1707   1.462       .  S
C364       C1304   1.468       .  S
O365        V373   1.899       .  S
O365        C375   1.263       .  A
O366        V373   1.903       .  S
O366        C376   1.265       .  A
O367        V373   1.902       .  S
O367        C377   1.264       .  A
O368        V373   1.906       .  S
O368        C378   1.264       .  A
O369        V374   1.893       .  S
O369        C378   1.263       .  A
O370        V374   1.902       .  S
O370        C377   1.264       .  A
O371        V374   1.899       .  S
O371        C376   1.263       .  A
O372        V374   1.905       .  S
O372        C375   1.265       .  A
V373        V374   2.089       .  T
C375       C1208   1.467       .  S
C376       C1256   1.469       .  S
C377       C1467   1.469       .  S
C378       C1224   1.467       .  S
O379        V387   1.903       .  S
O379        C389   1.265       .  A
O380        V387   1.900       .  S
O380        C390   1.264       .  A
O381        V387   1.895       .  S
O381        C391   1.263       .  A
O382        V387   1.903       .  S
O382        C392   1.264       .  A
O383        V388   1.899       .  S
O383        C392   1.264       .  A
O384        V388   1.903       .  S
O384        C391   1.265       .  A
O385        V388   1.904       .  S
O385        C390   1.264       .  A
O386        V388   1.892       .  S
O386        C389   1.263       .  A
V387        V388   2.083       .  T
C389       C1291   1.463       .  S
C390       C1195   1.466       .  S
C391       C1227   1.465       .  S
C392       C1496   1.464       .  S
O393        V401   1.904       .  S
O393        C403   1.264       .  A
O394        V401   1.898       .  S
O394        C404   1.263       .  A
O395        V401   1.905       .  S
O395        C405   1.265       .  A
O396        V401   1.900       .  S
O396        C406   1.264       .  A
O397        V402   1.903       .  S
O397        C406   1.263       .  A
O398        V402   1.895       .  S
O398        C405   1.263       .  A
O399        V402   1.907       .  S
O399        C404   1.266       .  A
O400        V402   1.899       .  S
O400        C403   1.263       .  A
V401        V402   2.085       .  T
C403       C1576   1.464       .  S
C404       C1176   1.470       .  S
C405       C1163   1.466       .  S
C406       C1144   1.464       .  S
O407        V415   1.900       .  S
O407        C417   1.264       .  A
O408        V415   1.896       .  S
O408        C418   1.262       .  A
O409        V415   1.903       .  S
O409        C419   1.264       .  A
O410        V415   1.899       .  S
O410        C420   1.263       .  A
O411        V416   1.905       .  S
O411        C420   1.265       .  A
O412        V416   1.900       .  S
O412        C419   1.264       .  A
O413        V416   1.904       .  S
O413        C418   1.265       .  A
O414        V416   1.898       .  S
O414        C417   1.263       .  A
V415        V416   2.089       .  T
C417       C1128   1.466       .  S
C418       C1115   1.464       .  S
C419       C1179   1.470       .  S
C420       C1547   1.467       .  S
O421        V429   1.905       .  S
O421        C431   1.264       .  A
O422        V429   1.899       .  S
O422        C432   1.263       .  A
O423        V429   1.900       .  S
O423        C433   1.263       .  A
O424        V429   1.904       .  S
O424        C434   1.265       .  A
O425        V430   1.897       .  S
O425        C434   1.263       .  A
O426        V430   1.901       .  S
O426        C433   1.264       .  A
O427        V430   1.899       .  S
O427        C432   1.263       .  A
O428        V430   1.893       .  S
O428        C431   1.263       .  A
V429        V430   2.089       .  T
C431       C1160   1.467       .  S
C432       C1080   1.463       .  S
C433       C1979   1.465       .  S
C434       C1096   1.468       .  S
O435        V443   1.907       .  S
O435        C445   1.265       .  A
O436        V443   1.899       .  S
O436        C446   1.263       .  A
O437        V443   1.903       .  S
O437        C447   1.265       .  A
O438        V443   1.898       .  S
O438        C448   1.263       .  A
O439        V444   1.903       .  S
O439        C448   1.264       .  A
O440        V444   1.896       .  S
O440        C447   1.263       .  A
O441        V444   1.899       .  S
O441        C446   1.264       .  A
O442        V444   1.896       .  S
O442        C445   1.262       .  A
V443        V444   2.086       .  T
C445       C1067   1.465       .  S
C446       C1131   1.466       .  S
C447       C1099   1.467       .  S
C448       C1944   1.465       .  S
O449        V457   1.900       .  S
O449        C459   1.264       .  A
O450        V457   1.894       .  S
O450        C460   1.263       .  A
O451        V457   1.894       .  S
O451        C461   1.263       .  A
O452        V457   1.903       .  S
O452        C462   1.264       .  A
O453        V458   1.896       .  S
O453        C462   1.262       .  A
O454        V458   1.903       .  S
O454        C461   1.264       .  A
O455        V458   1.906       .  S
O455        C460   1.265       .  A
O456        V458   1.899       .  S
O456        C459   1.263       .  A
V457        V458   2.089       .  T
C459       C1016   1.463       .  S
C460       C1032   1.469       .  S
C461       C1048   1.466       .  S
C462       C1387   1.463       .  S
O463        V471   1.898       .  S
O463        C473   1.263       .  A
O464        V471   1.901       .  S
O464        C474   1.264       .  A
O465        V471   1.898       .  S
O465        C475   1.263       .  A
O466        V471   1.906       .  S
O466        C476   1.265       .  A
O467        V472   1.901       .  S
O467        C476   1.264       .  A
O468        V472   1.903       .  S
O468        C475   1.264       .  A
O469        V472   1.899       .  S
O469        C474   1.264       .  A
O470        V472   1.906       .  S
O470        C473   1.265       .  A
V471        V472   2.089       .  T
C473       C1400   1.467       .  S
C474       C1051   1.467       .  S
C475        C984   1.466       .  S
C476       C1000   1.473       .  S
O477        V485   1.908       .  S
O477        C487   1.266       .  A
O478        V485   1.900       .  S
O478        C488   1.265       .  A
O479        V485   1.902       .  S
O479        C489   1.264       .  A
O480        V485   1.897       .  S
O480        C490   1.263       .  A
O481        V486   1.905       .  S
O481        C490   1.266       .  A
O482        V486   1.898       .  S
O482        C489   1.263       .  A
O483        V486   1.907       .  S
O483        C488   1.264       .  A
O484        V486   1.898       .  S
O484        C487   1.265       .  A
V485        V486   2.085       .  T
C487       C1003   1.473       .  S
C488        C952   1.470       .  S
C489       C1784   1.464       .  S
C490        C968   1.469       .  S
O491        V499   1.896       .  S
O491        C501   1.263       .  A
O492        V499   1.900       .  S
O492        C502   1.265       .  A
O493        V499   1.895       .  S
O493        C503   1.263       .  A
O494        V499   1.905       .  S
O494        C504   1.265       .  A
O495        V500   1.905       .  S
O495        C504   1.265       .  A
O496        V500   1.907       .  S
O496        C503   1.266       .  A
O497        V500   1.903       .  S
O497        C502   1.264       .  A
O498        V500   1.908       .  S
O498        C501   1.265       .  A
V499        V500   2.084       .  T
C501       C1816   1.466       .  S
C502        C971   1.470       .  S
C503       C1035   1.468       .  S
C504        C936   1.471       .  S
O505        V513   1.904       .  S
O505        C515   1.264       .  A
O506        V513   1.908       .  S
O506        C516   1.266       .  A
O507        V513   1.896       .  S
O507        C517   1.263       .  A
O508        V513   1.903       .  S
O508        C518   1.265       .  A
O509        V514   1.901       .  S
O509        C518   1.264       .  A
O510        V514   1.906       .  S
O510        C517   1.266       .  A
O511        V514   1.893       .  S
O511        C516   1.263       .  A
O512        V514   1.899       .  S
O512        C515   1.263       .  A
V513        V514   2.084       .  T
C515       C1896   1.464       .  S
C516        C920   1.469       .  S
C517        C904   1.469       .  S
C518        C888   1.467       .  S
O519        V527   1.900       .  S
O519        C529   1.264       .  A
O520        V527   1.904       .  S
O520        C530   1.265       .  A
O521        V527   1.898       .  S
O521        C531   1.263       .  A
O522        V527   1.892       .  S
O522        C532   1.261       .  A
O523        V528   1.907       .  S
O523        C532   1.265       .  A
O524        V528   1.900       .  S
O524        C531   1.264       .  A
O525        V528   1.892       .  S
O525        C530   1.262       .  A
O526        V528   1.897       .  S
O526        C529   1.262       .  A
V527        V528   2.090       .  T
C529        C856   1.462       .  S
C530        C872   1.466       .  S
C531        C923   1.467       .  S
C532       C1867   1.463       .  S
O533        V541   1.894       .  S
O533        C543   1.263       .  A
O534        V541   1.903       .  S
O534        C544   1.264       .  A
O535        V541   1.902       .  S
O535        C545   1.264       .  A
O536        V541   1.899       .  S
O536        C546   1.263       .  A
O537        V542   1.903       .  S
O537        C546   1.265       .  A
O538        V542   1.898       .  S
O538        C545   1.264       .  A
O539        V542   1.899       .  S
O539        C544   1.264       .  A
O540        V542   1.903       .  S
O540        C543   1.264       .  A
V541        V542   2.087       .  T
C543        C875   1.466       .  S
C544        C827   1.467       .  S
C545        C843   1.468       .  S
C546       C1627   1.467       .  S
O547        V555   1.897       .  S
O547        C557   1.262       .  A
O548        V555   1.902       .  S
O548        C558   1.264       .  A
O549        V555   1.905       .  S
O549        C559   1.264       .  A
O550        V555   1.898       .  S
O550        C560   1.263       .  A
O551        V556   1.901       .  S
O551        C560   1.263       .  A
O552        V556   1.895       .  S
O552        C559   1.263       .  A
O553        V556   1.901       .  S
O553        C558   1.264       .  A
O554        V556   1.905       .  S
O554        C557   1.265       .  A
V555        V556   2.089       .  T
C557       C1659   1.467       .  S
C558        C840   1.470       .  S
C559        C907   1.469       .  S
C560        C811   1.463       .  S
O561        V569   1.908       .  S
O561        C571   1.265       .  A
O562        V569   1.898       .  S
O562        C572   1.263       .  A
O563        V569   1.901       .  S
O563        C573   1.264       .  A
O564        V569   1.904       .  S
O564        C574   1.264       .  A
O565        V570   1.895       .  S
O565        C574   1.263       .  A
O566        V570   1.906       .  S
O566        C573   1.266       .  A
O567        V570   1.905       .  S
O567        C572   1.265       .  A
O568        V570   1.899       .  S
O568        C571   1.265       .  A
V569        V570   2.085       .  T
C571        C795   1.473       .  S
C572       C1275   1.465       .  S
C573        C779   1.473       .  S
C574       C1083   1.462       .  S
O575        V583   1.900       .  S
O575        C585   1.263       .  A
O576        V583   1.904       .  S
O576        C586   1.264       .  A
O577        V583   1.899       .  S
O577        C587   1.264       .  A
O578        V583   1.907       .  S
O578        C588   1.265       .  A
O579        V584   1.900       .  S
O579        C588   1.264       .  A
O580        V584   1.909       .  S
O580        C587   1.265       .  A
O581        V584   1.897       .  S
O581        C586   1.264       .  A
O582        V584   1.901       .  S
O582        C585   1.264       .  A
V583        V584   2.088       .  T
C585        C891   1.464       .  S
C586        C763   1.469       .  S
C587       C1192   1.472       .  S
C588        C792   1.472       .  S
O589        V597   1.904       .  S
O589        C599   1.265       .  A
O590        V597   1.899       .  S
O590        C600   1.263       .  A
O591        V597   1.908       .  S
O591        C601   1.266       .  A
O592        V597   1.906       .  S
O592        C602   1.266       .  A
O593        V598   1.903       .  S
O593        C602   1.264       .  A
O594        V598   1.894       .  S
O594        C601   1.262       .  A
O595        V598   1.901       .  S
O595        C600   1.264       .  A
O596        V598   1.895       .  S
O596        C599   1.263       .  A
V597        V598   2.085       .  T
C599        C760   1.467       .  S
C600        C808   1.465       .  S
C601       C1019   1.465       .  S
C602        C747   1.474       .  S
O603        V611   1.901       .  S
O603        C613   1.264       .  A
O604        V611   1.909       .  S
O604        C614   1.266       .  A
O605        V611   1.909       .  S
O605        C615   1.266       .  A
O606        V611   1.905       .  S
O606        C616   1.264       .  A
O607        V612   1.907       .  S
O607        C616   1.265       .  A
O608        V612   1.902       .  S
O608        C615   1.264       .  A
O609        V612   1.898       .  S
O609        C614   1.264       .  A
O610        V612   1.904       .  S
O610        C613   1.264       .  A
V611        V612   2.088       .  T
C613       C1147   1.468       .  S
C614        C776   1.474       .  S
C615        C744   1.475       .  S
C616        C939   1.472       .  S
O617        V625   1.900       .  S
O617        C627   1.263       .  A
O618        V625   1.895       .  S
O618        C628   1.262       .  A
O619        V625   1.903       .  S
O619        C629   1.264       .  A
O620        V625   1.896       .  S
O620        C630   1.264       .  A
O621        V626   1.906       .  S
O621        C630   1.265       .  A
O622        V626   1.901       .  S
O622        C629   1.264       .  A
O623        V626   1.904       .  S
O623        C628   1.265       .  A
O624        V626   1.898       .  S
O624        C627   1.263       .  A
V625        V626   2.089       .  T
C627        C859   1.462       .  S
C628        C728   1.467       .  S
C629       C1211   1.467       .  S
C630        C712   1.470       .  S
O631        V639   1.898       .  S
O631        C641   1.264       .  A
O632        V639   1.902       .  S
O632        C642   1.264       .  A
O633        V639   1.903       .  S
O633        C643   1.264       .  A
O634        V639   1.900       .  S
O634        C644   1.264       .  A
O635        V640   1.902       .  S
O635        C644   1.264       .  A
O636        V640   1.898       .  S
O636        C643   1.263       .  A
O637        V640   1.898       .  S
O637        C642   1.263       .  A
O638        V640   1.903       .  S
O638        C641   1.264       .  A
V639        V640   2.089       .  T
C641        C731   1.468       .  S
C642        C824   1.464       .  S
C643        C987   1.464       .  S
C644        C696   1.470       .  S
O645        V653   1.904       .  S
O645        C655   1.265       .  A
O646        V653   1.912       .  S
O646        C656   1.267       .  A
O647        V653   1.904       .  S
O647        C657   1.266       .  A
O648        V653   1.910       .  S
O648        C658   1.266       .  A
O649        V654   1.896       .  S
O649        C658   1.263       .  A
O650        V654   1.899       .  S
O650        C657   1.264       .  A
O651        V654   1.896       .  S
O651        C656   1.263       .  A
O652        V654   1.901       .  S
O652        C655   1.264       .  A
V653        V654   2.084       .  T
C655       C1112   1.467       .  S
C656        C680   1.473       .  S
C657        C699   1.470       .  S
C658        C955   1.468       .  S
O659        V667   1.902       .  S
O659        C669   1.265       .  A
O660        V667   1.898       .  S
O660        C670   1.263       .  A
O661        V667   1.902       .  S
O661        C671   1.265       .  A
O662        V667   1.907       .  S
O662        C672   1.265       .  A
O663        V668   1.899       .  S
O663        C672   1.264       .  A
O664        V668   1.907       .  S
O664        C671   1.265       .  A
O665        V668   1.899       .  S
O665        C670   1.263       .  A
O666        V668   1.897       .  S
O666        C669   1.264       .  A
V667        V668   2.085       .  T
C669        C715   1.468       .  S
C670       C1240   1.459       .  S
C671        C683   1.474       .  S
C672       C1064   1.470       .  S
C673        C678   1.380       .  A
C673        C674   1.403       .  A
C673        O679   1.318       .  A
C674        C675   1.402       .  A
C674        H685   1.082       .  S
C675        C684   1.361       .  A
C675        C676   1.380       .  A
C676        C677   1.407       .  A
C676        O682   1.322       .  A
C677        C678   1.406       .  A
C677        H686   1.082       .  S
C678        C681   1.367       .  A
O679        C680   1.331       .  A
C680        C681   1.393       .  A
C681        H687   1.082       .  S
O682        C683   1.333       .  A
C683        C684   1.391       .  A
C684        H688   1.082       .  S
C689        C694   1.380       .  A
C689        C690   1.404       .  A
C689        O695   1.319       .  A
C690        C691   1.403       .  A
C690        H701   1.082       .  S
C691        C700   1.363       .  A
C691        C692   1.380       .  A
C692        C693   1.404       .  A
C692        O698   1.318       .  A
C693        C694   1.403       .  A
C693        H702   1.082       .  S
C694        C697   1.362       .  A
O695        C696   1.331       .  A
C696        C697   1.392       .  A
C697        H703   1.082       .  S
O698        C699   1.331       .  A
C699        C700   1.391       .  A
C700        H704   1.082       .  S
C705        C710   1.381       .  A
C705        C706   1.404       .  A
C705        O711   1.320       .  A
C706        C707   1.404       .  A
C706        H717   1.082       .  S
C707        C716   1.361       .  A
C707        C708   1.381       .  A
C708        C709   1.402       .  A
C708        O714   1.318       .  A
C709        C710   1.402       .  A
C709        H718   1.082       .  S
C710        C713   1.359       .  A
O711        C712   1.331       .  A
C712        C713   1.391       .  A
C713        H719   1.082       .  S
O714        C715   1.330       .  A
C715        C716   1.391       .  A
C716        H720   1.082       .  S
C721        C726   1.381       .  A
C721        C722   1.402       .  A
C721        O727   1.317       .  A
C722        C723   1.401       .  A
C722        H733   1.082       .  S
C723        C732   1.361       .  A
C723        C724   1.381       .  A
C724        C725   1.404       .  A
C724        O730   1.319       .  A
C725        C726   1.403       .  A
C725        H734   1.082       .  S
C726        C729   1.363       .  A
O727        C728   1.330       .  A
C728        C729   1.391       .  A
C729        H735   1.082       .  S
O730        C731   1.331       .  A
C731        C732   1.391       .  A
C732        H736   1.082       .  S
C737        C742   1.380       .  A
C737        C738   1.404       .  A
C737        O743   1.319       .  A
C738        C739   1.402       .  A
C738        H749   1.082       .  S
C739        C748   1.362       .  A
C739        C740   1.380       .  A
C740        C741   1.407       .  A
C740        O746   1.321       .  A
C741        C742   1.406       .  A
C741        H750   1.082       .  S
C742        C745   1.367       .  A
O743        C744   1.331       .  A
C744        C745   1.394       .  A
C745        H751   1.082       .  S
O746        C747   1.333       .  A
C747        C748   1.391       .  A
C748        H752   1.082       .  S
C753        C758   1.381       .  A
C753        C754   1.401       .  A
C753        O759   1.316       .  A
C754        C755   1.400       .  A
C754        H765   1.082       .  S
C755        C764   1.359       .  A
C755        C756   1.380       .  A
C756        C757   1.405       .  A
C756        O762   1.320       .  A
C757        C758   1.404       .  A
C757        H766   1.082       .  S
C758        C761   1.364       .  A
O759        C760   1.329       .  A
C760        C761   1.392       .  A
C761        H767   1.082       .  S
O762        C763   1.332       .  A
C763        C764   1.390       .  A
C764        H768   1.082       .  S
C769        C774   1.380       .  A
C769        C770   1.407       .  A
C769        O775   1.322       .  A
C770        C771   1.406       .  A
C770        H781   1.082       .  S
C771        C780   1.366       .  A
C771        C772   1.380       .  A
C772        C773   1.402       .  A
C772        O778   1.318       .  A
C773        C774   1.402       .  A
C773        H782   1.082       .  S
C774        C777   1.360       .  A
O775        C776   1.333       .  A
C776        C777   1.391       .  A
C777        H783   1.082       .  S
O778        C779   1.330       .  A
C779        C780   1.393       .  A
C780        H784   1.082       .  S
C785        C790   1.380       .  A
C785        C786   1.401       .  A
C785        O791   1.317       .  A
C786        C787   1.400       .  A
C786        H797   1.082       .  S
C787        C796   1.359       .  A
C787        C788   1.380       .  A
C788        C789   1.408       .  A
C788        O794   1.323       .  A
C789        C790   1.408       .  A
C789        H798   1.082       .  S
C790        C793   1.367       .  A
O791        C792   1.329       .  A
C792        C793   1.394       .  A
C793        H799   1.082       .  S
O794        C795   1.334       .  A
C795        C796   1.390       .  A
C796        H800   1.082       .  S
C801        C806   1.381       .  A
C801        C802   1.402       .  A
C801        O807   1.318       .  A
C802        C803   1.402       .  A
C802        H813   1.082       .  S
C803        C812   1.360       .  A
C803        C804   1.381       .  A
C804        C805   1.403       .  A
C804        O810   1.319       .  A
C805        C806   1.403       .  A
C805        H814   1.082       .  S
C806        C809   1.361       .  A
O807        C808   1.330       .  A
C808        C809   1.390       .  A
C809        H815   1.082       .  S
O810        C811   1.330       .  A
C811        C812   1.389       .  A
C812        H816   1.082       .  S
C817        C822   1.381       .  A
C817        C818   1.402       .  A
C817        O823   1.319       .  A
C818        C819   1.402       .  A
C818        H829   1.082       .  S
C819        C828   1.361       .  A
C819        C820   1.381       .  A
C820        C821   1.404       .  A
C820        O826   1.320       .  A
C821        C822   1.403       .  A
C821        H830   1.082       .  S
C822        C825   1.362       .  A
O823        C824   1.329       .  A
C824        C825   1.390       .  A
C825        H831   1.082       .  S
O826        C827   1.331       .  A
C827        C828   1.390       .  A
C828        H832   1.082       .  S
C833        C838   1.381       .  A
C833        C834   1.403       .  A
C833        O839   1.318       .  A
C834        C835   1.402   1_554  A
C834        H845   1.082       .  S
C835        C844   1.361       .  A
C835        C836   1.381       .  A
C836        C837   1.404   1_556  A
C836        O842   1.319       .  A
C837        C838   1.403       .  A
C837        H846   1.082       .  S
C838        C841   1.362       .  A
O839        C840   1.330       .  A
C840        C841   1.392       .  A
C841        H847   1.082       .  S
O842        C843   1.331       .  A
C843        C844   1.391       .  A
C844        H848   1.082       .  S
C849        C854   1.381       .  A
C849        C850   1.403       .  A
C849        O855   1.318       .  A
C850        C851   1.402       .  A
C850        H861   1.082       .  S
C851        C860   1.361       .  A
C851        C852   1.381       .  A
C852        C853   1.402       .  A
C852        O858   1.317       .  A
C853        C854   1.401       .  A
C853        H862   1.082       .  S
C854        C857   1.361       .  A
O855        C856   1.329       .  A
C856        C857   1.389       .  A
C857        H863   1.082       .  S
O858        C859   1.329       .  A
C859        C860   1.389       .  A
C860        H864   1.082       .  S
C865        C870   1.381       .  A
C865        C866   1.401       .  A
C865        O871   1.318       .  A
C866        C867   1.400   1_455  A
C866        H877   1.082       .  S
C867        C876   1.358       .  A
C867        C868   1.381       .  A
C868        C869   1.403       .  A
C868        O874   1.320       .  A
C869        C870   1.403   1_655  A
C869        H878   1.082       .  S
C870        C873   1.360       .  A
O871        C872   1.329       .  A
C872        C873   1.391       .  A
C873        H879   1.082       .  S
O874        C875   1.331       .  A
C875        C876   1.389       .  A
C876        H880   1.082       .  S
C881        C886   1.381       .  A
C881        C882   1.404       .  A
C881        O887   1.319       .  A
C882        C883   1.403       .  A
C882        H893   1.082       .  S
C883        C892   1.362       .  A
C883        C884   1.381       .  A
C884        C885   1.403       .  A
C884        O890   1.319       .  A
C885        C886   1.402       .  A
C885        H894   1.082       .  S
C886        C889   1.362       .  A
O887        C888   1.331       .  A
C888        C889   1.390       .  A
C889        H895   1.082       .  S
O890        C891   1.330       .  A
C891        C892   1.390       .  A
C892        H896   1.082       .  S
C897        C902   1.381       .  A
C897        C898   1.401   1_455  A
C897        O903   1.317       .  A
C898        C899   1.400       .  A
C898        H909   1.082   1_655  S
C899        C908   1.358       .  A
C899        C900   1.380       .  A
C900        C901   1.405       .  A
C900        O906   1.321       .  A
C901        C902   1.405   1_655  A
C901        H910   1.082       .  S
C902        C905   1.365       .  A
O903        C904   1.330       .  A
C904        C905   1.392       .  A
C905        H911   1.082       .  S
O906        C907   1.332       .  A
C907        C908   1.390       .  A
C908        H912   1.082       .  S
C913        C918   1.381       .  A
C913        C914   1.405       .  A
C913        O919   1.321       .  A
C914        C915   1.405   1_554  A
C914        H925   1.082       .  S
C915        C924   1.362       .  A
C915        C916   1.381       .  A
C916        C917   1.400   1_556  A
C916        O922   1.317       .  A
C917        C918   1.400       .  A
C917        H926   1.082       .  S
C918        C921   1.357       .  A
O919        C920   1.332       .  A
C920        C921   1.390       .  A
C921        H927   1.082       .  S
O922        C923   1.329       .  A
C923        C924   1.392       .  A
C924        H928   1.082       .  S
C929        C934   1.380       .  A
C929        C930   1.405       .  A
C929        O935   1.320       .  A
C930        C931   1.404       .  A
C930        H941   1.082       .  S
C931        C940   1.364       .  A
C931        C932   1.380       .  A
C932        C933   1.406       .  A
C932        O938   1.321       .  A
C933        C934   1.405       .  A
C933        H942   1.082       .  S
C934        C937   1.365       .  A
O935        C936   1.331       .  A
C936        C937   1.392       .  A
C937        H943   1.082       .  S
O938        C939   1.332       .  A
C939        C940   1.391       .  A
C940        H944   1.082       .  S
C945        C950   1.380       .  A
C945        C946   1.408       .  A
C945        O951   1.323       .  A
C946        C947   1.407       .  A
C946        H957   1.082       .  S
C947        C956   1.367       .  A
C947        C948   1.381       .  A
C948        C949   1.401       .  A
C948        O954   1.317       .  A
C949        C950   1.400       .  A
C949        H958   1.082       .  S
C950        C953   1.359       .  A
O951        C952   1.333       .  A
C952        C953   1.388       .  A
C953        H959   1.082       .  S
O954        C955   1.329       .  A
C955        C956   1.393       .  A
C956        H960   1.082       .  S
C961        C966   1.381       .  A
C961        C962   1.402       .  A
C961        O967   1.317       .  A
C962        C963   1.401   1_556  A
C962        H973   1.082       .  S
C963        C972   1.361       .  A
C963        C964   1.380       .  A
C964        C965   1.405   1_554  A
C964        O970   1.320       .  A
C965        C966   1.404       .  A
C965        H974   1.082       .  S
C966        C969   1.364       .  A
O967        C968   1.330       .  A
C968        C969   1.392       .  A
C969        H975   1.082       .  S
O970        C971   1.331       .  A
C971        C972   1.391       .  A
C972        H976   1.082       .  S
C977        C982   1.381       .  A
C977        C978   1.402       .  A
C977        O983   1.318       .  A
C978        C979   1.401       .  A
C978        H989   1.082       .  S
C979        C988   1.361       .  A
C979        C980   1.381       .  A
C980        C981   1.404       .  A
C980        O986   1.320       .  A
C981        C982   1.403       .  A
C981        H990   1.082       .  S
C982        C985   1.363       .  A
O983        C984   1.330       .  A
C984        C985   1.391       .  A
C985        H991   1.082       .  S
O986        C987   1.330       .  A
C987        C988   1.389       .  A
C988        H992   1.083       .  S
C993        C998   1.381       .  A
C993        C994   1.402       .  A
C993        O999   1.319       .  A
C994        C995   1.402   1_565  A
C994       H1005   1.082       .  S
C995       C1004   1.360       .  A
C995        C996   1.380       .  A
C996        C997   1.406   1_545  A
C996       O1002   1.322       .  A
C997        C998   1.406       .  A
C997       H1006   1.082       .  S
C998       C1001   1.364       .  A
O999       C1000   1.330       .  A
C1000      C1001   1.393       .  A
C1001      H1007   1.082       .  S
O1002      C1003   1.332       .  A
C1003      C1004   1.391       .  A
C1004      H1008   1.082       .  S
C1009      C1014   1.381       .  A
C1009      C1010   1.404       .  A
C1009      O1015   1.318       .  A
C1010      C1011   1.402       .  A
C1010      H1021   1.082       .  S
C1011      C1020   1.364       .  A
C1011      C1012   1.381       .  A
C1012      C1013   1.403       .  A
C1012      O1018   1.317       .  A
C1013      C1014   1.401       .  A
C1013      H1022   1.082       .  S
C1014      C1017   1.362       .  A
O1015      C1016   1.330       .  A
C1016      C1017   1.389       .  A
C1017      H1023   1.082       .  S
O1018      C1019   1.330       .  A
C1019      C1020   1.390       .  A
C1020      H1024   1.082       .  S
C1025      C1030   1.380       .  A
C1025      C1026   1.406   1_565  A
C1025      O1031   1.322       .  A
C1026      C1027   1.406       .  A
C1026      H1037   1.082       .  S
C1027      C1036   1.366       .  A
C1027      C1028   1.381       .  A
C1028      C1029   1.399       .  A
C1028      O1034   1.316       .  A
C1029      C1030   1.399   1_545  A
C1029      H1038   1.082       .  S
C1030      C1033   1.357       .  A
O1031      C1032   1.332       .  A
C1032      C1033   1.389       .  A
C1033      H1039   1.082       .  S
O1034      C1035   1.329       .  A
C1035      C1036   1.393       .  A
C1036      H1040   1.082       .  S
C1041      C1046   1.381       .  A
C1041      C1042   1.404       .  A
C1041      O1047   1.320       .  A
C1042      C1043   1.404   1_554  A
C1042      H1053   1.082       .  S
C1043      C1052   1.363       .  A
C1043      C1044   1.381       .  A
C1044      C1045   1.400   1_556  A
C1044      O1050   1.317       .  A
C1045      C1046   1.400       .  A
C1045      H1054   1.082       .  S
C1046      C1049   1.358       .  A
O1047      C1048   1.331       .  A
C1048      C1049   1.389       .  A
C1049      H1055   1.082       .  S
O1050      C1051   1.329       .  A
C1051      C1052   1.392       .  A
C1052      H1056   1.082       .  S
C1057      C1062   1.381       .  A
C1057      C1058   1.405       .  A
C1057      O1063   1.321       .  A
C1058      C1059   1.404       .  A
C1058      H1069   1.082       .  S
C1059      C1068   1.362       .  A
C1059      C1060   1.381       .  A
C1060      C1061   1.402       .  A
C1060      O1066   1.320       .  A
C1061      C1062   1.402       .  A
C1061      H1070   1.082       .  S
C1062      C1065   1.360       .  A
O1063      C1064   1.332       .  A
C1064      C1065   1.390       .  A
C1065      H1071   1.082       .  S
O1066      C1067   1.329       .  A
C1067      C1068   1.390       .  A
C1068      H1072   1.082       .  S
C1073      C1078   1.381       .  A
C1073      C1074   1.401       .  A
C1073      O1079   1.317       .  A
C1074      C1075   1.401       .  A
C1074      H1085   1.082       .  S
C1075      C1084   1.359       .  A
C1075      C1076   1.381       .  A
C1076      C1077   1.403       .  A
C1076      O1082   1.319       .  A
C1077      C1078   1.403       .  A
C1077      H1086   1.082       .  S
C1078      C1081   1.362       .  A
O1079      C1080   1.329       .  A
C1080      C1081   1.390       .  A
C1081      H1087   1.082       .  S
O1082      C1083   1.330       .  A
C1083      C1084   1.388       .  A
C1084      H1088   1.082       .  S
C1089      C1094   1.381       .  A
C1089      C1090   1.403       .  A
C1089      O1095   1.318       .  A
C1090      C1091   1.402   1_554  A
C1090      H1101   1.082       .  S
C1091      C1100   1.362       .  A
C1091      C1092   1.381       .  A
C1092      C1093   1.403   1_556  A
C1092      O1098   1.318       .  A
C1093      C1094   1.402       .  A
C1093      H1102   1.082       .  S
C1094      C1097   1.362       .  A
O1095      C1096   1.331       .  A
C1096      C1097   1.391       .  A
C1097      H1103   1.082       .  S
O1098      C1099   1.330       .  A
C1099      C1100   1.391       .  A
C1100      H1104   1.082       .  S
C1105      C1110   1.381       .  A
C1105      C1106   1.404       .  A
C1105      O1111   1.319       .  A
C1106      C1107   1.403       .  A
C1106      H1117   1.082       .  S
C1107      C1116   1.363       .  A
C1107      C1108   1.381       .  A
C1108      C1109   1.403       .  A
C1108      O1114   1.318       .  A
C1109      C1110   1.402       .  A
C1109      H1118   1.082       .  S
C1110      C1113   1.363       .  A
O1111      C1112   1.330       .  A
C1112      C1113   1.390       .  A
C1113      H1119   1.082       .  S
O1114      C1115   1.330       .  A
C1115      C1116   1.390       .  A
C1116      H1120   1.082       .  S
C1121      C1126   1.381       .  A
C1121      C1122   1.402   1_655  A
C1121      O1127   1.317       .  A
C1122      C1123   1.401       .  A
C1122      H1133   1.082       .  S
C1123      C1132   1.360       .  A
C1123      C1124   1.381       .  A
C1124      C1125   1.403       .  A
C1124      O1130   1.318       .  A
C1125      C1126   1.402   1_455  A
C1125      H1134   1.082       .  S
C1126      C1129   1.362       .  A
O1127      C1128   1.330       .  A
C1128      C1129   1.391       .  A
C1129      H1135   1.082       .  S
O1130      C1131   1.330       .  A
C1131      C1132   1.390       .  A
C1132      H1136   1.082       .  S
C1137      C1142   1.381       .  A
C1137      C1138   1.405       .  A
C1137      O1143   1.320       .  A
C1138      C1139   1.405       .  A
C1138      H1149   1.082       .  S
C1139      C1148   1.364       .  A
C1139      C1140   1.381       .  A
C1140      C1141   1.402       .  A
C1140      O1146   1.318       .  A
C1141      C1142   1.401       .  A
C1141      H1150   1.082       .  S
C1142      C1145   1.360       .  A
O1143      C1144   1.331       .  A
C1144      C1145   1.388       .  A
C1145      H1151   1.082       .  S
O1146      C1147   1.330       .  A
C1147      C1148   1.392       .  A
C1148      H1152   1.082       .  S
C1153      C1158   1.381       .  A
C1153      C1154   1.405   1_455  A
C1153      O1159   1.320       .  A
C1154      C1155   1.404       .  A
C1154      H1165   1.082       .  S
C1155      C1164   1.364       .  A
C1155      C1156   1.381       .  A
C1156      C1157   1.400       .  A
C1156      O1162   1.316       .  A
C1157      C1158   1.399   1_655  A
C1157      H1166   1.082       .  S
C1158      C1161   1.357       .  A
O1159      C1160   1.331       .  A
C1160      C1161   1.389       .  A
C1161      H1167   1.083       .  S
O1162      C1163   1.329       .  A
C1163      C1164   1.392       .  A
C1164      H1168   1.082       .  S
C1169      C1174   1.380       .  A
C1169      C1170   1.403   1_554  A
C1169      O1175   1.318       .  A
C1170      C1171   1.402       .  A
C1170      H1181   1.082       .  S
C1171      C1180   1.362       .  A
C1171      C1172   1.380       .  A
C1172      C1173   1.404       .  A
C1172      O1178   1.319       .  A
C1173      C1174   1.404   1_556  A
C1173      H1182   1.082       .  S
C1174      C1177   1.364       .  A
O1175      C1176   1.331       .  A
C1176      C1177   1.392       .  A
C1177      H1183   1.082       .  S
O1178      C1179   1.331       .  A
C1179      C1180   1.391       .  A
C1180      H1184   1.082       .  S
C1185      C1190   1.381       .  A
C1185      C1186   1.406       .  A
C1185      O1191   1.322       .  A
C1186      C1187   1.405       .  A
C1186      H1197   1.082       .  S
C1187      C1196   1.363       .  A
C1187      C1188   1.381       .  A
C1188      C1189   1.402       .  A
C1188      O1194   1.320       .  A
C1189      C1190   1.402       .  A
C1189      H1198   1.082       .  S
C1190      C1193   1.360       .  A
O1191      C1192   1.332       .  A
C1192      C1193   1.390       .  A
C1193      H1199   1.082       .  S
O1194      C1195   1.329       .  A
C1195      C1196   1.391       .  A
C1196      H1200   1.082       .  S
C1201      C1206   1.381       .  A
C1201      C1202   1.403       .  A
C1201      O1207   1.318       .  A
C1202      C1203   1.402       .  A
C1202      H1213   1.082       .  S
C1203      C1212   1.362       .  A
C1203      C1204   1.381       .  A
C1204      C1205   1.405       .  A
C1204      O1210   1.320       .  A
C1205      C1206   1.404       .  A
C1205      H1214   1.082       .  S
C1206      C1209   1.364       .  A
O1207      C1208   1.330       .  A
C1208      C1209   1.391       .  A
C1209      H1215   1.082       .  S
O1210      C1211   1.331       .  A
C1211      C1212   1.390       .  A
C1212      H1216   1.082       .  S
C1217      C1222   1.381       .  A
C1217      C1218   1.405       .  A
C1217      O1223   1.321       .  A
C1218      C1219   1.404   1_556  A
C1218      H1229   1.082       .  S
C1219      C1228   1.364       .  A
C1219      C1220   1.381       .  A
C1220      C1221   1.399       .  A
C1220      O1226   1.315       .  A
C1221      C1222   1.398   1_554  A
C1221      H1230   1.082       .  S
C1222      C1225   1.357       .  A
O1223      C1224   1.332       .  A
C1224      C1225   1.389       .  A
C1225      H1231   1.083       .  S
O1226      C1227   1.328       .  A
C1227      C1228   1.392       .  A
C1228      H1232   1.082       .  S
C1233      C1238   1.381       .  A
C1233      C1234   1.405       .  A
C1233      O1239   1.319       .  A
C1234      C1235   1.404       .  A
C1234      H1245   1.082       .  S
C1235      C1244   1.364       .  A
C1235      C1236   1.381       .  A
C1236      C1237   1.399       .  A
C1236      O1242   1.314       .  A
C1237      C1238   1.398       .  A
C1237      H1246   1.082       .  S
C1238      C1241   1.358       .  A
O1239      C1240   1.330       .  A
C1240      C1241   1.386       .  A
C1241      H1247   1.082       .  S
O1242      C1243   1.328       .  A
C1243      C1244   1.392       .  A
C1244      H1248   1.082       .  S
C1249      C1254   1.380       .  A
C1249      C1250   1.404       .  A
C1249      O1255   1.319       .  A
C1250      C1251   1.403   1_565  A
C1250      H1261   1.082       .  S
C1251      C1260   1.363       .  A
C1251      C1252   1.381       .  A
C1252      C1253   1.403   1_545  A
C1252      O1258   1.318       .  A
C1253      C1254   1.402       .  A
C1253      H1262   1.082       .  S
C1254      C1257   1.362       .  A
O1255      C1256   1.331       .  A
C1256      C1257   1.391       .  A
C1257      H1263   1.082       .  S
O1258      C1259   1.330       .  A
C1259      C1260   1.391       .  A
C1260      H1264   1.082       .  S
C1265      C1270   1.381       .  A
C1265      C1266   1.405       .  A
C1265      O1271   1.321       .  A
C1266      C1267   1.405       .  A
C1266      H1277   1.082       .  S
C1267      C1276   1.364       .  A
C1267      C1268   1.381       .  A
C1268      C1269   1.400       .  A
C1268      O1274   1.317       .  A
C1269      C1270   1.399       .  A
C1269      H1278   1.082       .  S
C1270      C1273   1.357       .  A
O1271      C1272   1.331       .  A
C1272      C1273   1.388       .  A
C1273      H1279   1.083       .  S
O1274      C1275   1.328       .  A
C1275      C1276   1.392       .  A
C1276      H1280   1.082       .  S
C1281      C1286   1.381       .  A
C1281      C1282   1.405       .  A
C1281      O1287   1.319       .  A
C1282      C1283   1.404   1_545  A
C1282      H1293   1.082       .  S
C1283      C1292   1.364       .  A
C1283      C1284   1.381       .  A
C1284      C1285   1.398   1_565  A
C1284      O1290   1.314       .  A
C1285      C1286   1.397       .  A
C1285      H1294   1.082   1_545  S
C1286      C1289   1.357       .  A
O1287      C1288   1.331       .  A
C1288      C1289   1.388       .  A
C1289      H1295   1.082       .  S
O1290      C1291   1.328       .  A
C1291      C1292   1.392       .  A
C1292      H1296   1.082       .  S
C1297      C1302   1.381       .  A
C1297      C1298   1.405       .  A
C1297      O1303   1.321       .  A
C1298      C1299   1.405   1_556  A
C1298      H1309   1.082       .  S
C1299      C1308   1.363       .  A
C1299      C1300   1.381       .  A
C1300      C1301   1.400   1_554  A
C1300      O1306   1.317       .  A
C1301      C1302   1.399       .  A
C1301      H1310   1.082       .  S
C1302      C1305   1.357       .  A
O1303      C1304   1.332       .  A
C1304      C1305   1.389       .  A
C1305      H1311   1.082       .  S
O1306      C1307   1.329       .  A
C1307      C1308   1.393       .  A
C1308      H1312   1.082       .  S
C1313      C1318   1.380       .  A
C1313      C1314   1.405   1_545  A
C1313      O1319   1.320       .  A
C1314      C1315   1.404       .  A
C1314      H1325   1.082       .  S
C1315      C1324   1.363       .  A
C1315      C1316   1.380       .  A
C1316      C1317   1.403       .  A
C1316      O1322   1.319       .  A
C1317      C1318   1.403   1_565  A
C1317      H1326   1.082       .  S
C1318      C1321   1.361       .  A
O1319      C1320   1.332       .  A
C1320      C1321   1.391       .  A
C1321      H1327   1.082       .  S
O1322      C1323   1.331       .  A
C1323      C1324   1.392       .  A
C1324      H1328   1.082       .  S
C1329      C1334   1.380       .  A
C1329      C1330   1.406       .  A
C1329      O1335   1.321       .  A
C1330      C1331   1.406   1_455  A
C1330      H1341   1.082       .  S
C1331      C1340   1.365       .  A
C1331      C1332   1.381       .  A
C1332      C1333   1.401       .  A
C1332      O1338   1.317       .  A
C1333      C1334   1.401   1_655  A
C1333      H1342   1.082       .  S
C1334      C1337   1.360       .  A
O1335      C1336   1.332       .  A
C1336      C1337   1.390       .  A
C1337      H1343   1.082       .  S
O1338      C1339   1.329       .  A
C1339      C1340   1.393       .  A
C1340      H1344   1.082       .  S
C1345      C1350   1.381       .  A
C1345      C1346   1.402       .  A
C1345      O1351   1.318       .  A
C1346      C1347   1.401   1_455  A
C1346      H1357   1.082       .  S
C1347      C1356   1.360       .  A
C1347      C1348   1.380       .  A
C1348      C1349   1.405   1_655  A
C1348      O1354   1.321       .  A
C1349      C1350   1.405       .  A
C1349      H1358   1.082   1_455  S
C1350      C1353   1.364       .  A
O1351      C1352   1.330       .  A
C1352      C1353   1.392       .  A
C1353      H1359   1.082       .  S
O1354      C1355   1.332       .  A
C1355      C1356   1.391       .  A
C1356      H1360   1.082       .  S
C1361      C1366   1.381       .  A
C1361      C1362   1.402   1_545  A
C1361      O1367   1.318       .  A
C1362      C1363   1.402       .  A
C1362      H1373   1.082   1_565  S
C1363      C1372   1.360       .  A
C1363      C1364   1.381       .  A
C1364      C1365   1.401       .  A
C1364      O1370   1.317       .  A
C1365      C1366   1.400   1_565  A
C1365      H1374   1.082       .  S
C1366      C1369   1.358       .  A
O1367      C1368   1.330       .  A
C1368      C1369   1.389       .  A
C1369      H1375   1.082       .  S
O1370      C1371   1.329       .  A
C1371      C1372   1.391       .  A
C1372      H1376   1.082       .  S
C1377      C1382   1.381       .  A
C1377      C1378   1.405       .  A
C1377      O1383   1.320       .  A
C1378      C1379   1.404       .  A
C1378      H1389   1.082       .  S
C1379      C1388   1.364       .  A
C1379      C1380   1.381       .  A
C1380      C1381   1.401       .  A
C1380      O1386   1.316       .  A
C1381      C1382   1.400       .  A
C1381      H1390   1.082       .  S
C1382      C1385   1.360       .  A
O1383      C1384   1.331       .  A
C1384      C1385   1.389       .  A
C1385      H1391   1.082       .  S
O1386      C1387   1.329       .  A
C1387      C1388   1.391       .  A
C1388      H1392   1.082       .  S
C1393      C1398   1.381       .  A
C1393      C1394   1.402       .  A
C1393      O1399   1.320       .  A
C1394      C1395   1.402       .  A
C1394      H1405   1.082       .  S
C1395      C1404   1.360       .  A
C1395      C1396   1.381       .  A
C1396      C1397   1.405       .  A
C1396      O1402   1.322       .  A
C1397      C1398   1.405       .  A
C1397      H1406   1.082       .  S
C1398      C1401   1.363       .  A
O1399      C1400   1.329       .  A
C1400      C1401   1.391       .  A
C1401      H1407   1.082       .  S
O1402      C1403   1.332       .  A
C1403      C1404   1.389       .  A
C1404      H1408   1.082       .  S
C1409      C1414   1.381       .  A
C1409      C1410   1.402       .  A
C1409      O1415   1.317       .  A
C1410      C1411   1.401       .  A
C1410      H1421   1.082       .  S
C1411      C1420   1.361       .  A
C1411      C1412   1.381       .  A
C1412      C1413   1.405       .  A
C1412      O1418   1.320       .  A
C1413      C1414   1.404       .  A
C1413      H1422   1.082       .  S
C1414      C1417   1.364       .  A
O1415      C1416   1.329       .  A
C1416      C1417   1.391       .  A
C1417      H1423   1.082       .  S
O1418      C1419   1.331       .  A
C1419      C1420   1.389       .  A
C1420      H1424   1.082       .  S
C1425      C1430   1.380       .  A
C1425      C1426   1.406       .  A
C1425      O1431   1.321       .  A
C1426      C1427   1.405       .  A
C1426      H1437   1.082       .  S
C1427      C1436   1.365       .  A
C1427      C1428   1.380       .  A
C1428      C1429   1.402       .  A
C1428      O1434   1.318       .  A
C1429      C1430   1.402       .  A
C1429      H1438   1.082       .  S
C1430      C1433   1.361       .  A
O1431      C1432   1.332       .  A
C1432      C1433   1.390       .  A
C1433      H1439   1.082       .  S
O1434      C1435   1.330       .  A
C1435      C1436   1.393       .  A
C1436      H1440   1.082       .  S
C1441      C1446   1.381       .  A
C1441      C1442   1.401       .  A
C1441      O1447   1.318       .  A
C1442      C1443   1.401       .  A
C1442      H1453   1.082       .  S
C1443      C1452   1.358       .  A
C1443      C1444   1.381       .  A
C1444      C1445   1.402       .  A
C1444      O1450   1.319       .  A
C1445      C1446   1.402       .  A
C1445      H1454   1.082       .  S
C1446      C1449   1.360       .  A
O1447      C1448   1.329       .  A
C1448      C1449   1.390       .  A
C1449      H1455   1.082       .  S
O1450      C1451   1.330       .  A
C1451      C1452   1.389       .  A
C1452      H1456   1.082       .  S
C1457      C1462   1.381       .  A
C1457      C1458   1.404       .  A
C1457      O1463   1.319       .  A
C1458      C1459   1.403       .  A
C1458      H1469   1.082       .  S
C1459      C1468   1.363       .  A
C1459      C1460   1.381       .  A
C1460      C1461   1.405       .  A
C1460      O1466   1.320       .  A
C1461      C1462   1.404       .  A
C1461      H1470   1.082       .  S
C1462      C1465   1.364       .  A
O1463      C1464   1.331       .  A
C1464      C1465   1.390       .  A
C1465      H1471   1.082       .  S
O1466      C1467   1.331       .  A
C1467      C1468   1.391       .  A
C1468      H1472   1.082       .  S
C1473      C1478   1.381       .  A
C1473      C1474   1.403       .  A
C1473      O1479   1.319       .  A
C1474      C1475   1.403       .  A
C1474      H1485   1.082       .  S
C1475      C1484   1.362       .  A
C1475      C1476   1.381       .  A
C1476      C1477   1.402       .  A
C1476      O1482   1.317       .  A
C1477      C1478   1.401       .  A
C1477      H1486   1.082       .  S
C1478      C1481   1.360       .  A
O1479      C1480   1.331       .  A
C1480      C1481   1.390       .  A
C1481      H1487   1.082       .  S
O1482      C1483   1.330       .  A
C1483      C1484   1.391       .  A
C1484      H1488   1.082       .  S
C1489      C1494   1.381       .  A
C1489      C1490   1.403       .  A
C1489      O1495   1.319       .  A
C1490      C1491   1.402       .  A
C1490      H1501   1.082       .  S
C1491      C1500   1.362       .  A
C1491      C1492   1.381       .  A
C1492      C1493   1.402       .  A
C1492      O1498   1.318       .  A
C1493      C1494   1.402       .  A
C1493      H1502   1.082       .  S
C1494      C1497   1.361       .  A
O1495      C1496   1.329       .  A
C1496      C1497   1.390       .  A
C1497      H1503   1.082       .  S
O1498      C1499   1.330       .  A
C1499      C1500   1.390       .  A
C1500      H1504   1.082       .  S
C1505      C1510   1.381       .  A
C1505      C1506   1.401       .  A
C1505      O1511   1.316       .  A
C1506      C1507   1.400       .  A
C1506      H1517   1.082       .  S
C1507      C1516   1.360       .  A
C1507      C1508   1.380       .  A
C1508      C1509   1.405       .  A
C1508      O1514   1.319       .  A
C1509      C1510   1.404       .  A
C1509      H1518   1.082       .  S
C1510      C1513   1.365       .  A
O1511      C1512   1.329       .  A
C1512      C1513   1.392       .  A
C1513      H1519   1.082       .  S
O1514      C1515   1.332       .  A
C1515      C1516   1.390       .  A
C1516      H1520   1.082       .  S
C1521      C1526   1.380       .  A
C1521      C1522   1.404       .  A
C1521      O1527   1.320       .  A
C1522      C1523   1.404       .  A
C1522      H1533   1.082       .  S
C1523      C1532   1.363       .  A
C1523      C1524   1.381       .  A
C1524      C1525   1.402       .  A
C1524      O1530   1.318       .  A
C1525      C1526   1.401       .  A
C1525      H1534   1.082       .  S
C1526      C1529   1.361       .  A
O1527      C1528   1.331       .  A
C1528      C1529   1.390       .  A
C1529      H1535   1.082       .  S
O1530      C1531   1.330       .  A
C1531      C1532   1.392       .  A
C1532      H1536   1.082       .  S
C1537      C1542   1.381       .  A
C1537      C1538   1.404       .  A
C1537      O1543   1.320       .  A
C1538      C1539   1.404       .  A
C1538      H1549   1.082       .  S
C1539      C1548   1.363       .  A
C1539      C1540   1.381       .  A
C1540      C1541   1.403       .  A
C1540      O1546   1.318       .  A
C1541      C1542   1.402       .  A
C1541      H1550   1.082       .  S
C1542      C1545   1.360       .  A
O1543      C1544   1.330       .  A
C1544      C1545   1.390       .  A
C1545      H1551   1.083       .  S
O1546      C1547   1.330       .  A
C1547      C1548   1.391       .  A
C1548      H1552   1.082       .  S
C1553      C1558   1.381       .  A
C1553      C1554   1.404       .  A
C1553      O1559   1.319       .  A
C1554      C1555   1.403       .  A
C1554      H1565   1.082       .  S
C1555      C1564   1.364       .  A
C1555      C1556   1.381       .  A
C1556      C1557   1.404       .  A
C1556      O1562   1.318       .  A
C1557      C1558   1.403       .  A
C1557      H1566   1.082       .  S
C1558      C1561   1.364       .  A
O1559      C1560   1.330       .  A
C1560      C1561   1.390       .  A
C1561      H1567   1.082       .  S
O1562      C1563   1.331       .  A
C1563      C1564   1.390       .  A
C1564      H1568   1.082       .  S
C1569      C1574   1.381       .  A
C1569      C1570   1.404       .  A
C1569      O1575   1.320       .  A
C1570      C1571   1.403       .  A
C1570      H1581   1.082       .  S
C1571      C1580   1.362       .  A
C1571      C1572   1.381       .  A
C1572      C1573   1.402       .  A
C1572      O1578   1.317       .  A
C1573      C1574   1.401       .  A
C1573      H1582   1.082       .  S
C1574      C1577   1.360       .  A
O1575      C1576   1.330       .  A
C1576      C1577   1.389       .  A
C1577      H1583   1.082       .  S
O1578      C1579   1.329       .  A
C1579      C1580   1.391       .  A
C1580      H1584   1.082       .  S
C1585      C1590   1.381       .  A
C1585      C1586   1.402       .  A
C1585      O1591   1.317       .  A
C1586      C1587   1.401       .  A
C1586      H1597   1.082       .  S
C1587      C1596   1.361       .  A
C1587      C1588   1.381       .  A
C1588      C1589   1.403       .  A
C1588      O1594   1.318       .  A
C1589      C1590   1.402       .  A
C1589      H1598   1.082       .  S
C1590      C1593   1.362       .  A
O1591      C1592   1.330       .  A
C1592      C1593   1.391       .  A
C1593      H1599   1.082       .  S
O1594      C1595   1.330       .  A
C1595      C1596   1.390       .  A
C1596      H1600   1.082       .  S
C1601      C1606   1.381       .  A
C1601      C1602   1.401       .  A
C1601      O1607   1.317       .  A
C1602      C1603   1.400       .  A
C1602      H1613   1.082       .  S
C1603      C1612   1.360       .  A
C1603      C1604   1.380       .  A
C1604      C1605   1.408       .  A
C1604      O1610   1.322       .  A
C1605      C1606   1.407       .  A
C1605      H1614   1.082       .  S
C1606      C1609   1.367       .  A
O1607      C1608   1.328       .  A
C1608      C1609   1.394       .  A
C1609      H1615   1.082       .  S
O1610      C1611   1.333       .  A
C1611      C1612   1.388       .  A
C1612      H1616   1.082       .  S
C1617      C1622   1.381       .  A
C1617      C1618   1.402       .  A
C1617      O1623   1.318       .  A
C1618      C1619   1.401       .  A
C1618      H1629   1.082       .  S
C1619      C1628   1.361       .  A
C1619      C1620   1.381       .  A
C1620      C1621   1.404       .  A
C1620      O1626   1.319       .  A
C1621      C1622   1.403       .  A
C1621      H1630   1.082       .  S
C1622      C1625   1.363       .  A
O1623      C1624   1.329       .  A
C1624      C1625   1.390       .  A
C1625      H1631   1.082       .  S
O1626      C1627   1.331       .  A
C1627      C1628   1.389       .  A
C1628      H1632   1.082       .  S
C1633      C1638   1.380       .  A
C1633      C1634   1.408       .  A
C1633      O1639   1.324       .  A
C1634      C1635   1.408       .  A
C1634      H1645   1.082       .  S
C1635      C1644   1.367       .  A
C1635      C1636   1.381       .  A
C1636      C1637   1.398       .  A
C1636      O1642   1.315       .  A
C1637      C1638   1.397       .  A
C1637      H1646   1.082       .  S
C1638      C1641   1.355       .  A
O1639      C1640   1.334       .  A
C1640      C1641   1.388       .  A
C1641      H1647   1.082       .  S
O1642      C1643   1.328       .  A
C1643      C1644   1.394       .  A
C1644      H1648   1.082       .  S
C1649      C1654   1.381       .  A
C1649      C1650   1.404       .  A
C1649      O1655   1.321       .  A
C1650      C1651   1.404       .  A
C1650      H1661   1.082       .  S
C1651      C1660   1.363       .  A
C1651      C1652   1.381       .  A
C1652      C1653   1.403       .  A
C1652      O1658   1.319       .  A
C1653      C1654   1.402       .  A
C1653      H1662   1.082       .  S
C1654      C1657   1.361       .  A
O1655      C1656   1.331       .  A
C1656      C1657   1.390       .  A
C1657      H1663   1.083       .  S
O1658      C1659   1.330       .  A
C1659      C1660   1.390       .  A
C1660      H1664   1.082       .  S
C1665      C1670   1.380       .  A
C1665      C1666   1.404       .  A
C1665      O1671   1.319       .  A
C1666      C1667   1.403       .  A
C1666      H1677   1.082       .  S
C1667      C1676   1.363       .  A
C1667      C1668   1.380       .  A
C1668      C1669   1.403       .  A
C1668      O1674   1.318       .  A
C1669      C1670   1.402       .  A
C1669      H1678   1.082       .  S
C1670      C1673   1.362       .  A
O1671      C1672   1.331       .  A
C1672      C1673   1.391       .  A
C1673      H1679   1.082       .  S
O1674      C1675   1.331       .  A
C1675      C1676   1.391       .  A
C1676      H1680   1.082       .  S
C1681      C1686   1.380       .  A
C1681      C1682   1.405       .  A
C1681      O1687   1.321       .  A
C1682      C1683   1.404       .  A
C1682      H1693   1.082       .  S
C1683      C1692   1.363       .  A
C1683      C1684   1.381       .  A
C1684      C1685   1.402       .  A
C1684      O1690   1.318       .  A
C1685      C1686   1.401       .  A
C1685      H1694   1.082       .  S
C1686      C1689   1.359       .  A
O1687      C1688   1.331       .  A
C1688      C1689   1.390       .  A
C1689      H1695   1.082       .  S
O1690      C1691   1.330       .  A
C1691      C1692   1.392       .  A
C1692      H1696   1.082       .  S
C1697      C1702   1.381       .  A
C1697      C1698   1.404       .  A
C1697      O1703   1.319       .  A
C1698      C1699   1.403       .  A
C1698      H1709   1.082       .  S
C1699      C1708   1.362       .  A
C1699      C1700   1.381       .  A
C1700      C1701   1.402       .  A
C1700      O1706   1.318       .  A
C1701      C1702   1.402       .  A
C1701      H1710   1.082       .  S
C1702      C1705   1.360       .  A
O1703      C1704   1.331       .  A
C1704      C1705   1.390       .  A
C1705      H1711   1.082       .  S
O1706      C1707   1.329       .  A
C1707      C1708   1.389       .  A
C1708      H1712   1.082       .  S
C1713      C1718   1.381       .  A
C1713      C1714   1.403       .  A
C1713      O1719   1.318       .  A
C1714      C1715   1.402       .  A
C1714      H1725   1.082       .  S
C1715      C1724   1.361       .  A
C1715      C1716   1.381       .  A
C1716      C1717   1.404       .  A
C1716      O1722   1.319       .  A
C1717      C1718   1.403       .  A
C1717      H1726   1.082       .  S
C1718      C1721   1.363       .  A
O1719      C1720   1.330       .  A
C1720      C1721   1.390       .  A
C1721      H1727   1.082       .  S
O1722      C1723   1.330       .  A
C1723      C1724   1.389       .  A
C1724      H1728   1.082       .  S
C1729      C1734   1.381       .  A
C1729      C1730   1.402       .  A
C1729      O1735   1.319       .  A
C1730      C1731   1.402       .  A
C1730      H1741   1.082       .  S
C1731      C1740   1.360       .  A
C1731      C1732   1.381       .  A
C1732      C1733   1.403       .  A
C1732      O1738   1.320       .  A
C1733      C1734   1.403       .  A
C1733      H1742   1.082       .  S
C1734      C1737   1.361       .  A
O1735      C1736   1.329       .  A
C1736      C1737   1.390       .  A
C1737      H1743   1.082       .  S
O1738      C1739   1.331       .  A
C1739      C1740   1.390       .  A
C1740      H1744   1.082       .  S
C1745      C1750   1.380       .  A
C1745      C1746   1.403       .  A
C1745      O1751   1.317       .  A
C1746      C1747   1.402       .  A
C1746      H1757   1.082       .  S
C1747      C1756   1.362       .  A
C1747      C1748   1.380       .  A
C1748      C1749   1.405       .  A
C1748      O1754   1.319       .  A
C1749      C1750   1.404       .  A
C1749      H1758   1.082       .  S
C1750      C1753   1.365       .  A
O1751      C1752   1.331       .  A
C1752      C1753   1.392       .  A
C1753      H1759   1.082       .  S
O1754      C1755   1.331       .  A
C1755      C1756   1.391       .  A
C1756      H1760   1.082       .  S
C1761      C1766   1.381       .  A
C1761      C1762   1.402       .  A
C1761      O1767   1.317       .  A
C1762      C1763   1.401       .  A
C1762      H1773   1.082       .  S
C1763      C1772   1.361       .  A
C1763      C1764   1.381       .  A
C1764      C1765   1.405       .  A
C1764      O1770   1.319       .  A
C1765      C1766   1.403       .  A
C1765      H1774   1.082       .  S
C1766      C1769   1.363       .  A
O1767      C1768   1.329       .  A
C1768      C1769   1.391       .  A
C1769      H1775   1.082       .  S
O1770      C1771   1.331       .  A
C1771      C1772   1.388       .  A
C1772      H1776   1.082       .  S
C1777      C1782   1.381       .  A
C1777      C1778   1.403       .  A
C1777      O1783   1.319       .  A
C1778      C1779   1.403       .  A
C1778      H1789   1.082       .  S
C1779      C1788   1.362       .  A
C1779      C1780   1.381       .  A
C1780      C1781   1.402       .  A
C1780      O1786   1.318       .  A
C1781      C1782   1.401       .  A
C1781      H1790   1.082       .  S
C1782      C1785   1.360       .  A
O1783      C1784   1.330       .  A
C1784      C1785   1.389       .  A
C1785      H1791   1.082       .  S
O1786      C1787   1.329       .  A
C1787      C1788   1.390       .  A
C1788      H1792   1.082       .  S
C1793      C1798   1.381       .  A
C1793      C1794   1.401       .  A
C1793      O1799   1.316       .  A
C1794      C1795   1.400       .  A
C1794      H1805   1.082       .  S
C1795      C1804   1.359       .  A
C1795      C1796   1.381       .  A
C1796      C1797   1.405       .  A
C1796      O1802   1.320       .  A
C1797      C1798   1.404       .  A
C1797      H1806   1.082       .  S
C1798      C1801   1.364       .  A
O1799      C1800   1.329       .  A
C1800      C1801   1.392       .  A
C1801      H1807   1.082       .  S
O1802      C1803   1.331       .  A
C1803      C1804   1.390       .  A
C1804      H1808   1.082       .  S
C1809      C1814   1.381       .  A
C1809      C1810   1.404       .  A
C1809      O1815   1.321       .  A
C1810      C1811   1.404       .  A
C1810      H1821   1.082       .  S
C1811      C1820   1.362       .  A
C1811      C1812   1.381       .  A
C1812      C1813   1.403       .  A
C1812      O1818   1.320       .  A
C1813      C1814   1.402       .  A
C1813      H1822   1.082       .  S
C1814      C1817   1.360       .  A
O1815      C1816   1.330       .  A
C1816      C1817   1.389       .  A
C1817      H1823   1.083       .  S
O1818      C1819   1.330       .  A
C1819      C1820   1.391       .  A
C1820      H1824   1.082       .  S
C1825      C1830   1.380       .  A
C1825      C1826   1.403       .  A
C1825      O1831   1.318       .  A
C1826      C1827   1.403       .  A
C1826      H1837   1.082       .  S
C1827      C1836   1.362       .  A
C1827      C1828   1.380       .  A
C1828      C1829   1.404       .  A
C1828      O1834   1.319       .  A
C1829      C1830   1.403       .  A
C1829      H1838   1.082       .  S
C1830      C1833   1.363       .  A
O1831      C1832   1.330       .  A
C1832      C1833   1.391       .  A
C1833      H1839   1.082       .  S
O1834      C1835   1.331       .  A
C1835      C1836   1.391       .  A
C1836      H1840   1.082       .  S
C1841      C1846   1.381       .  A
C1841      C1842   1.402       .  A
C1841      O1847   1.319       .  A
C1842      C1843   1.402       .  A
C1842      H1853   1.082       .  S
C1843      C1852   1.358       .  A
C1843      C1844   1.381       .  A
C1844      C1845   1.403       .  A
C1844      O1850   1.321       .  A
C1845      C1846   1.403       .  A
C1845      H1854   1.082       .  S
C1846      C1849   1.360       .  A
O1847      C1848   1.330       .  A
C1848      C1849   1.391       .  A
C1849      H1855   1.082       .  S
O1850      C1851   1.331       .  A
C1851      C1852   1.391       .  A
C1852      H1856   1.082       .  S
C1857      C1862   1.381       .  A
C1857      C1858   1.405       .  A
C1857      O1863   1.319       .  A
C1858      C1859   1.404       .  A
C1858      H1869   1.082       .  S
C1859      C1868   1.365       .  A
C1859      C1860   1.381       .  A
C1860      C1861   1.400       .  A
C1860      O1866   1.315       .  A
C1861      C1862   1.399       .  A
C1861      H1870   1.082       .  S
C1862      C1865   1.359       .  A
O1863      C1864   1.331       .  A
C1864      C1865   1.387       .  A
C1865      H1871   1.082       .  S
O1866      C1867   1.329       .  A
C1867      C1868   1.391       .  A
C1868      H1872   1.082       .  S
C1873      C1878   1.381       .  A
C1873      C1874   1.402       .  A
C1873      O1879   1.319       .  A
C1874      C1875   1.402       .  A
C1874      H1885   1.082       .  S
C1875      C1884   1.359       .  A
C1875      C1876   1.381       .  A
C1876      C1877   1.404       .  A
C1876      O1882   1.321       .  A
C1877      C1878   1.404       .  A
C1877      H1886   1.082       .  S
C1878      C1881   1.363       .  A
O1879      C1880   1.329       .  A
C1880      C1881   1.391       .  A
C1881      H1887   1.082       .  S
O1882      C1883   1.331       .  A
C1883      C1884   1.389       .  A
C1884      H1888   1.082       .  S
C1889      C1894   1.381       .  A
C1889      C1890   1.403       .  A
C1889      O1895   1.319       .  A
C1890      C1891   1.403       .  A
C1890      H1901   1.082       .  S
C1891      C1900   1.361       .  A
C1891      C1892   1.381       .  A
C1892      C1893   1.403       .  A
C1892      O1898   1.319       .  A
C1893      C1894   1.403       .  A
C1893      H1902   1.082       .  S
C1894      C1897   1.361       .  A
O1895      C1896   1.330       .  A
C1896      C1897   1.389       .  A
C1897      H1903   1.082       .  S
O1898      C1899   1.330       .  A
C1899      C1900   1.390       .  A
C1900      H1904   1.082       .  S
C1905      C1910   1.381       .  A
C1905      C1906   1.401       .  A
C1905      O1911   1.318       .  A
C1906      C1907   1.401       .  A
C1906      H1917   1.082       .  S
C1907      C1916   1.358       .  A
C1907      C1908   1.381       .  A
C1908      C1909   1.404       .  A
C1908      O1914   1.321       .  A
C1909      C1910   1.404       .  A
C1909      H1918   1.082       .  S
C1910      C1913   1.362       .  A
O1911      C1912   1.330       .  A
C1912      C1913   1.392       .  A
C1913      H1919   1.082       .  S
O1914      C1915   1.331       .  A
C1915      C1916   1.390       .  A
C1916      H1920   1.082       .  S
C1921      C1926   1.381       .  A
C1921      C1922   1.402       .  A
C1921      O1927   1.318       .  A
C1922      C1923   1.401       .  A
C1922      H1933   1.082       .  S
C1923      C1932   1.359       .  A
C1923      C1924   1.381       .  A
C1924      C1925   1.402       .  A
C1924      O1930   1.318       .  A
C1925      C1926   1.402       .  A
C1925      H1934   1.082       .  S
C1926      C1929   1.361       .  A
O1927      C1928   1.329       .  A
C1928      C1929   1.389       .  A
C1929      H1935   1.082       .  S
O1930      C1931   1.330       .  A
C1931      C1932   1.389       .  A
C1932      H1936   1.082       .  S
C1937      C1942   1.381       .  A
C1937      C1938   1.404       .  A
C1937      O1943   1.319       .  A
C1938      C1939   1.403       .  A
C1938      H1949   1.082       .  S
C1939      C1948   1.363       .  A
C1939      C1940   1.381       .  A
C1940      C1941   1.402       .  A
C1940      O1946   1.317       .  A
C1941      C1942   1.401       .  A
C1941      H1950   1.082       .  S
C1942      C1945   1.360       .  A
O1943      C1944   1.330       .  A
C1944      C1945   1.389       .  A
C1945      H1951   1.082       .  S
O1946      C1947   1.329       .  A
C1947      C1948   1.390       .  A
C1948      H1952   1.082       .  S
C1953      C1958   1.381       .  A
C1953      C1954   1.403       .  A
C1953      O1959   1.320       .  A
C1954      C1955   1.403       .  A
C1954      H1965   1.082       .  S
C1955      C1964   1.361       .  A
C1955      C1956   1.381       .  A
C1956      C1957   1.404       .  A
C1956      O1962   1.321       .  A
C1957      C1958   1.404       .  A
C1957      H1966   1.082       .  S
C1958      C1961   1.362       .  A
O1959      C1960   1.331       .  A
C1960      C1961   1.392       .  A
C1961      H1967   1.082       .  S
O1962      C1963   1.331       .  A
C1963      C1964   1.391       .  A
C1964      H1968   1.082       .  S
C1969      C1974   1.381       .  A
C1969      C1970   1.404       .  A
C1969      O1975   1.319       .  A
C1970      C1971   1.403       .  A
C1970      H1981   1.082       .  S
C1971      C1980   1.362       .  A
C1971      C1972   1.381       .  A
C1972      C1973   1.403       .  A
C1972      O1978   1.318       .  A
C1973      C1974   1.402       .  A
C1973      H1982   1.082       .  S
C1974      C1977   1.361       .  A
O1975      C1976   1.330       .  A
C1976      C1977   1.390       .  A
C1977      H1983   1.082       .  S
O1978      C1979   1.330       .  A
C1979      C1980   1.390       .  A
C1980      H1984   1.082       .  S
C1985      C1990   1.381       .  A
C1985      C1986   1.403       .  A
C1985      O1991   1.319       .  A
C1986      C1987   1.403       .  A
C1986      H1997   1.082       .  S
C1987      C1996   1.359       .  A
C1987      C1988   1.381       .  A
C1988      C1989   1.402       .  A
C1988      O1994   1.319       .  A
C1989      C1990   1.402       .  A
C1989      H1998   1.082       .  S
C1990      C1993   1.360       .  A
O1991      C1992   1.331       .  A
C1992      C1993   1.390       .  A
C1993      H1999   1.082       .  S
O1994      C1995   1.330       .  A
C1995      C1996   1.391       .  A
C1996      H2000   1.082       .  S
C2001      C2006   1.381       .  A
C2001      C2002   1.403       .  A
C2001      O2007   1.318       .  A
C2002      C2003   1.402       .  A
C2002      H2013   1.082       .  S
C2003      C2012   1.361       .  A
C2003      C2004   1.381       .  A
C2004      C2005   1.403       .  A
C2004      O2010   1.319       .  A
C2005      C2006   1.402       .  A
C2005      H2014   1.082       .  S
C2006      C2009   1.362       .  A
O2007      C2008   1.331       .  A
C2008      C2009   1.391       .  A
C2009      H2015   1.082       .  S
O2010      C2011   1.330       .  A
C2011      C2012   1.391       .  A
C2012      H2016   1.082       .  S
C2017      C2022   1.381       .  A
C2017      C2018   1.403       .  A
C2017      O2023   1.319       .  A
C2018      C2019   1.403       .  A
C2018      H2029   1.082       .  S
C2019      C2028   1.362       .  A
C2019      C2020   1.381       .  A
C2020      C2021   1.402       .  A
C2020      O2026   1.318       .  A
C2021      C2022   1.401       .  A
C2021      H2030   1.082       .  S
C2022      C2025   1.359       .  A
O2023      C2024   1.330       .  A
C2024      C2025   1.388       .  A
C2025      H2031   1.082       .  S
O2026      C2027   1.330       .  A
C2027      C2028   1.390       .  A
C2028      H2032   1.082       .  S
C2033      C2038   1.381       .  A
C2033      C2034   1.406       .  A
C2033      O2039   1.323       .  A
C2034      C2035   1.406       .  A
C2034      H2045   1.082       .  S
C2035      C2044   1.365       .  A
C2035      C2036   1.381       .  A
C2036      C2037   1.403       .  A
C2036      O2042   1.319       .  A
C2037      C2038   1.402       .  A
C2037      H2046   1.082       .  S
C2038      C2041   1.360       .  A
O2039      C2040   1.332       .  A
C2040      C2041   1.390       .  A
C2041      H2047   1.082       .  S
O2042      C2043   1.330       .  A
C2043      C2044   1.392       .  A
C2044      H2048   1.082       .  S
C2049      C2054   1.381       .  A
C2049      C2050   1.401       .  A
C2049      O2055   1.317       .  A
C2050      C2051   1.400       .  A
C2050      H2061   1.082       .  S
C2051      C2060   1.360       .  A
C2051      C2052   1.381       .  A
C2052      C2053   1.405       .  A
C2052      O2058   1.320       .  A
C2053      C2054   1.404       .  A
C2053      H2062   1.082       .  S
C2054      C2057   1.364       .  A
O2055      C2056   1.329       .  A
C2056      C2057   1.391       .  A
C2057      H2063   1.082       .  S
O2058      C2059   1.331       .  A
C2059      C2060   1.388       .  A
C2060      H2064   1.082       .  S
C2065      C2070   1.381       .  A
C2065      C2066   1.402       .  A
C2065      O2071   1.318       .  A
C2066      C2067   1.402       .  A
C2066      H2077   1.082       .  S
C2067      C2076   1.361       .  A
C2067      C2068   1.381       .  A
C2068      C2069   1.405       .  A
C2068      O2074   1.320       .  A
C2069      C2070   1.404       .  A
C2069      H2078   1.082       .  S
C2070      C2073   1.363       .  A
O2071      C2072   1.330       .  A
C2072      C2073   1.391       .  A
C2073      H2079   1.082       .  S
O2074      C2075   1.331       .  A
C2075      C2076   1.389       .  A
C2076      H2080   1.082       .  S
C2081      C2086   1.381       .  A
C2081      C2082   1.402   1_565  A
C2081      O2087   1.317       .  A
C2082      C2083   1.401       .  A
C2082      H2093   1.082       .  S
C2083      C2092   1.360       .  A
C2083      C2084   1.380       .  A
C2084      C2085   1.405       .  A
C2084      O2090   1.320       .  A
C2085      C2086   1.404   1_545  A
C2085      H2094   1.082       .  S
C2086      C2089   1.364       .  A
O2087      C2088   1.330       .  A
C2088      C2089   1.392       .  A
C2089      H2095   1.082       .  S
O2090      C2091   1.332       .  A
C2091      C2092   1.390       .  A
C2092      H2096   1.082       .  S
C2097      C2102   1.381       .  A
C2097      C2098   1.402       .  A
C2097      O2103   1.319       .  A
C2098      C2099   1.402       .  A
C2098      H2109   1.082       .  S
C2099      C2108   1.360       .  A
C2099      C2100   1.381       .  A
C2100      C2101   1.404       .  A
C2100      O2106   1.320       .  A
C2101      C2102   1.404       .  A
C2101      H2110   1.082       .  S
C2102      C2105   1.362       .  A
O2103      C2104   1.329       .  A
C2104      C2105   1.390       .  A
C2105      H2111   1.082       .  S
O2106      C2107   1.331       .  A
C2107      C2108   1.389       .  A
C2108      H2112   1.082       .  S
C2113      C2118   1.381       .  A
C2113      C2114   1.403       .  A
C2113      O2119   1.319       .  A
C2114      C2115   1.403       .  A
C2114      H2125   1.082       .  S
C2115      C2124   1.362       .  A
C2115      C2116   1.381       .  A
C2116      C2117   1.401       .  A
C2116      O2122   1.318       .  A
C2117      C2118   1.401       .  A
C2117      H2126   1.082       .  S
C2118      C2121   1.360       .  A
O2119      C2120   1.330       .  A
C2120      C2121   1.389       .  A
C2121      H2127   1.082       .  S
O2122      C2123   1.329       .  A
C2123      C2124   1.390       .  A
C2124      H2128   1.082       .  S
C2129      C2134   1.381       .  A
C2129      C2130   1.403   1_655  A
C2129      O2135   1.318       .  A
C2130      C2131   1.402       .  A
C2130      H2141   1.082       .  S
C2131      C2140   1.362       .  A
C2131      C2132   1.381       .  A
C2132      C2133   1.403       .  A
C2132      O2138   1.317       .  A
C2133      C2134   1.402   1_455  A
C2133      H2142   1.082       .  S
C2134      C2137   1.362       .  A
O2135      C2136   1.330       .  A
C2136      C2137   1.391       .  A
C2137      H2143   1.082       .  S
O2138      C2139   1.330       .  A
C2139      C2140   1.391       .  A
C2140      H2144   1.082       .  S
C2145      C2150   1.381       .  A
C2145      C2146   1.401       .  A
C2145      O2151   1.317       .  A
C2146      C2147   1.401       .  A
C2146      H2157   1.082       .  S
C2147      C2156   1.359       .  A
C2147      C2148   1.381       .  A
C2148      C2149   1.403       .  A
C2148      O2154   1.319       .  A
C2149      C2150   1.403       .  A
C2149      H2158   1.082       .  S
C2150      C2153   1.361       .  A
O2151      C2152   1.329       .  A
C2152      C2153   1.390       .  A
C2153      H2159   1.082       .  S
O2154      C2155   1.330       .  A
C2155      C2156   1.389       .  A
C2156      H2160   1.082       .  S
C2161      C2166   1.381       .  A
C2161      C2162   1.403       .  A
C2161      O2167   1.319       .  A
C2162      C2163   1.402       .  A
C2162      H2173   1.082       .  S
C2163      C2172   1.361       .  A
C2163      C2164   1.381       .  A
C2164      C2165   1.402       .  A
C2164      O2170   1.318       .  A
C2165      C2166   1.402       .  A
C2165      H2174   1.082       .  S
C2166      C2169   1.361       .  A
O2167      C2168   1.330       .  A
C2168      C2169   1.389       .  A
C2169      H2175   1.082       .  S
O2170      C2171   1.330       .  A
C2171      C2172   1.390       .  A
C2172      H2176   1.082       .  S
C2177      C2182   1.381       .  A
C2177      C2178   1.405       .  A
C2177      O2183   1.319       .  A
C2178      C2179   1.403   1_655  A
C2178      H2189   1.082       .  S
C2179      C2188   1.364       .  A
C2179      C2180   1.381       .  A
C2180      C2181   1.400       .  A
C2180      O2186   1.314       .  A
C2181      C2182   1.398   1_455  A
C2181      H2190   1.082       .  S
C2182      C2185   1.358       .  A
O2183      C2184   1.331       .  A
C2184      C2185   1.389       .  A
C2185      H2191   1.082       .  S
O2186      C2187   1.328       .  A
C2187      C2188   1.391       .  A
C2188      H2192   1.082       .  S
C2193      C2198   1.380       .  A
C2193      C2194   1.405   1_565  A
C2193      O2199   1.320       .  A
C2194      C2195   1.404       .  A
C2194      H2205   1.082   1_545  S
C2195      C2204   1.364       .  A
C2195      C2196   1.381       .  A
C2196      C2197   1.401       .  A
C2196      O2202   1.316       .  A
C2197      C2198   1.400   1_545  A
C2197      H2206   1.082       .  S
C2198      C2201   1.359       .  A
O2199      C2200   1.332       .  A
C2200      C2201   1.389       .  A
C2201      H2207   1.082       .  S
O2202      C2203   1.329       .  A
C2203      C2204   1.392       .  A
C2204      H2208   1.082       .  S
