geometry optimzed in LAMMPS
_audit_creation_date              2020-12-01 
_audit_creation_method            'lammps2cif' 
_symmetry_space_group_name_H-M    'P1' 
_symmetry_Int_Tables_number       1 
_symmetry_cell_setting            triclinic 
loop_ 
_symmetry_equiv_pos_as_xyz 
  x,y,z 
_cell_length_a                    45.4552974 
_cell_length_b                    45.44419270663173 
_cell_length_c                    30.294041770137397 
_cell_angle_alpha                 89.99512614985754 
_cell_angle_beta                  90.03594606599576 
_cell_angle_gamma                 90.04858248288879 
loop_ 
_atom_site_label 
_atom_site_type_symbol 
_atom_site_fract_x 
_atom_site_fract_y 
_atom_site_fract_z 
_atom_site_charge 
O1          O  0.50184701  0.85825486  0.05821029    -0.74100
O2          O  0.50543432  0.86095998  0.93202838    -0.74200
O3          O  0.46152680  0.86002440  0.99289066    -0.74200
O4          O  0.54578937  0.85910629  0.99771649    -0.74300
O5          O  0.54517219  0.81005727  0.99431981    -0.74200
O6          O  0.46103720  0.81092996  0.99166009    -0.74200
O7          O  0.50422791  0.81191277  0.92967084    -0.74200
O8          O  0.50200210  0.80917805  0.05600635    -0.74200
Ni9        Ni  0.50368077  0.86134504  0.99523593     1.25400
Ni10       Ni  0.50310256  0.80877496  0.99276404     1.25400
C11         C  0.50087974  0.83329951  0.07781408     0.88000
C12         C  0.50572039  0.83686827  0.91009373     0.88000
C13         C  0.44744246  0.83558834  0.99283773     0.88000
C14         C  0.55930515  0.83438210  0.99688916     0.88200
O15         O  0.50213276  0.85808391  0.42979867    -0.74100
O16         O  0.50418159  0.85991580  0.55610202    -0.74200
O17         O  0.54534162  0.85953904  0.49151115    -0.74200
O18         O  0.46110190  0.85827879  0.49411827    -0.74300
O19         O  0.46188244  0.80920895  0.49718972    -0.74200
O20         O  0.54592395  0.81053637  0.49164705    -0.74200
O21         O  0.50589526  0.81091602  0.55757518    -0.74200
O22         O  0.50186547  0.80899740  0.43131288    -0.74200
Ni23       Ni  0.50318041  0.86071203  0.49286359     1.25400
Ni24       Ni  0.50393404  0.80816840  0.49451822     1.25400
C25         C  0.50102045  0.83327004  0.40983379     0.88000
C26         C  0.50574292  0.83571380  0.57766249     0.88000
C27         C  0.55955189  0.83518755  0.49082347     0.88000
C28         C  0.44768381  0.83349297  0.49548551     0.88200
O29         O  0.80309682  0.53836690  0.00011127    -0.74100
O30         O  0.80358008  0.45396581  0.00256529    -0.74200
O31         O  0.80297123  0.49685332  0.06471522    -0.74200
O32         O  0.80375557  0.49554628  0.93803509    -0.74300
O33         O  0.85272795  0.49743465  0.93886230    -0.74200
O34         O  0.85203122  0.49551765  0.06531893    -0.74200
O35         O  0.85255805  0.45435984  0.00083158    -0.74200
O36         O  0.85201619  0.53850904  0.00334372    -0.74200
Ni37       Ni  0.80158420  0.49615057  0.00135018     1.25400
Ni38       Ni  0.85406407  0.49644995  0.00212407     1.25400
C39         C  0.82750613  0.55240312  0.00180953     0.88000
C40         C  0.82815814  0.44022130  0.00137009     0.88000
C41         C  0.82741647  0.49628937  0.08581919     0.88000
C42         C  0.82838208  0.49669697  0.91754177     0.88200
O43         O  0.80667057  0.45641335  0.50667828    -0.74100
O44         O  0.80810062  0.54062906  0.49872550    -0.74200
O45         O  0.80606062  0.49572471  0.43983539    -0.74200
O46         O  0.80859782  0.50137195  0.56576313    -0.74300
O47         O  0.85764644  0.49984688  0.56393411    -0.74200
O48         O  0.85508729  0.49558538  0.43770676    -0.74200
O49         O  0.85713182  0.53977643  0.49759846    -0.74200
O50         O  0.85568841  0.45551869  0.50396300    -0.74200
Ni51       Ni  0.80561570  0.49855367  0.50286044     1.25400
Ni52       Ni  0.85813944  0.49763082  0.50074126     1.25400
C53         C  0.83094632  0.44208390  0.50642277     0.88000
C54         C  0.83286351  0.55408330  0.49669643     0.88000
C55         C  0.83014060  0.49473538  0.41801850     0.88000
C56         C  0.83350858  0.50183292  0.58552217     0.88200
O57         O  0.49900823  0.14994856  0.07405478    -0.74100
O58         O  0.50412649  0.14822080  0.94782387    -0.74200
O59         O  0.54356224  0.14983268  0.01521835    -0.74200
O60         O  0.45961230  0.14856595  0.00692019    -0.74300
O61         O  0.45908077  0.19767124  0.00735111    -0.74200
O62         O  0.54323582  0.19864815  0.01089144    -0.74200
O63         O  0.50235426  0.19723230  0.94616676    -0.74200
O64         O  0.50011325  0.19903521  0.07252542    -0.74200
Ni65       Ni  0.50160086  0.14738632  0.01105368     1.25400
Ni66       Ni  0.50115299  0.19989924  0.00922587     1.25400
C67         C  0.49936596  0.17476620  0.09403851     0.88000
C68         C  0.50396112  0.17245286  0.92617376     0.88000
C69         C  0.55737006  0.17445488  0.01459817     0.88000
C70         C  0.44556845  0.17296096  0.00545969     0.88200
O71         O  0.44860587  0.20243269  0.51372249    -0.74100
O72         O  0.53302293  0.20187526  0.50896756    -0.74200
O73         O  0.48948657  0.20349260  0.44791473    -0.74200
O74         O  0.49244721  0.20079223  0.57455224    -0.74300
O75         O  0.49177632  0.15175495  0.57198060    -0.74200
O76         O  0.48914049  0.15448386  0.44592814    -0.74200
O77         O  0.53242599  0.15281224  0.50679478    -0.74200
O78         O  0.44835548  0.15351725  0.51057426    -0.74200
Ni79       Ni  0.49085302  0.20393206  0.51138138     1.25400
Ni80       Ni  0.49036786  0.15143840  0.50879914     1.25400
C81         C  0.43449378  0.17803606  0.51217238     0.88000
C82         C  0.54658075  0.17718241  0.50729288     0.88000
C83         C  0.48895209  0.17934470  0.42603650     0.88000
C84         C  0.49313881  0.17575999  0.59402454     0.88200
O85         O  0.14476933  0.50102637  0.06763363    -0.74100
O86         O  0.14448848  0.50575743  0.94139409    -0.74200
O87         O  0.14249804  0.46137620  0.00096589    -0.74200
O88         O  0.14684883  0.54556733  0.00770940    -0.74300
O89         O  0.19583851  0.54315583  0.00714736    -0.74200
O90         O  0.19149960  0.45914366  0.00088274    -0.74200
O91         O  0.19350535  0.50332265  0.94109048    -0.74200
O92         O  0.19380334  0.49895458  0.06735536    -0.74200
Ni93       Ni  0.14289614  0.50354690  0.00450964     1.25400
Ni94       Ni  0.19539494  0.50106016  0.00416798     1.25400
C95         C  0.16929766  0.49876682  0.08821420     0.88000
C96         C  0.16898200  0.50555493  0.92051690     0.88000
C97         C  0.16635435  0.44642200  0.99924230     0.88000
C98         C  0.17205895  0.55823657  0.00822315     0.88200
O99         O  0.19642616  0.53704680  0.50191190    -0.74100
O100        O  0.19589485  0.45285454  0.50484393    -0.74200
O101        O  0.19500657  0.49369930  0.44038595    -0.74200
O102        O  0.19696911  0.49629391  0.56695382    -0.74300
O103        O  0.14795396  0.49663557  0.56841539    -0.74200
O104        O  0.14595732  0.49389389  0.44213620    -0.74200
O105        O  0.14695220  0.45305626  0.50712983    -0.74200
O106        O  0.14736963  0.53743860  0.50349453    -0.74200
Ni107      Ni  0.19781213  0.49496318  0.50350812     1.25400
Ni108      Ni  0.14530912  0.49526693  0.50534967     1.25400
C109        C  0.17204326  0.55111334  0.50279924     0.88000
C110        C  0.17140888  0.43898450  0.50643899     0.88000
C111        C  0.17013015  0.49290170  0.42049313     0.88000
C112        C  0.17272910  0.49687581  0.58857002     0.88200
O113        O  0.79382542  0.82983825  0.95273134    -0.74100
O114        O  0.87808077  0.83002842  0.95078614    -0.74200
O115        O  0.83607643  0.78786684  0.94981227    -0.74200
O116        O  0.83572824  0.87221492  0.95396722    -0.74300
O117        O  0.83604753  0.87054824  0.02744106    -0.74200
O118        O  0.83778774  0.78656342  0.02344233    -0.74200
O119        O  0.87890858  0.82928337  0.02442827    -0.74200
O120        O  0.79469847  0.82753271  0.02630849    -0.74200
Ni121      Ni  0.83589532  0.83008506  0.94916473     1.25400
Ni122      Ni  0.83685276  0.82846518  0.02800248     1.25400
C123        C  0.78043999  0.82821791  0.98983207     0.88000
C124        C  0.89232934  0.82921797  0.98727430     0.88000
C125        C  0.83750824  0.77343441  0.98607607     0.88000
C126        C  0.83564394  0.88531675  0.99142743     0.88200
O127        O  0.83496415  0.78950119  0.53749936    -0.74100
O128        O  0.83827503  0.87371931  0.53846862    -0.74200
O129        O  0.79454416  0.83350947  0.53716263    -0.74200
O130        O  0.87880153  0.82983563  0.53870263    -0.74300
O131        O  0.87934995  0.83002158  0.46509578    -0.74200
O132        O  0.79525619  0.83407779  0.46354999    -0.74200
O133        O  0.83909136  0.87405200  0.46485296    -0.74200
O134        O  0.83529314  0.78991903  0.46385695    -0.74200
Ni135      Ni  0.83665067  0.83161123  0.54059960     1.25400
Ni136      Ni  0.83729877  0.83201182  0.46173332     1.25400
C137        C  0.83433947  0.77587465  0.50049387     0.88000
C138        C  0.83909337  0.88774250  0.50180099     0.88000
C139        C  0.78108893  0.83505016  0.50004566     0.88000
C140        C  0.89292280  0.82889814  0.50212913     0.88200
O141        O  0.83472673  0.20482429  0.97387674    -0.74100
O142        O  0.83433662  0.12064207  0.97434347    -0.74200
O143        O  0.79228651  0.16273220  0.97654275    -0.74200
O144        O  0.87652107  0.16271807  0.97228465    -0.74300
O145        O  0.87798276  0.16135841  0.04593443    -0.74200
O146        O  0.79405050  0.16461965  0.04983701    -0.74200
O147        O  0.83446109  0.12064894  0.04798231    -0.74200
O148        O  0.83759434  0.20505654  0.04738525    -0.74200
Ni149      Ni  0.83437384  0.16272153  0.97162616     1.25400
Ni150      Ni  0.83606130  0.16290539  0.05041263     1.25400
C151        C  0.83687813  0.21878694  0.01044181     0.88000
C152        C  0.83407927  0.10677432  0.01113122     0.88000
C153        C  0.77919080  0.16356692  0.01403032     0.88000
C154        C  0.89102435  0.16182115  0.00852089     0.88200
O155        O  0.78098093  0.16360375  0.53219971    -0.74100
O156        O  0.86536427  0.16466047  0.53350763    -0.74200
O157        O  0.82266140  0.20635763  0.53327848    -0.74200
O158        O  0.82378804  0.12225817  0.53280223    -0.74300
O159        O  0.82316328  0.12234215  0.45918342    -0.74200
O160        O  0.82409361  0.20677630  0.45966793    -0.74200
O161        O  0.86578449  0.16409427  0.45989442    -0.74200
O162        O  0.78151013  0.16502102  0.45854482    -0.74200
Ni163      Ni  0.82316162  0.16425257  0.53555809     1.25400
Ni164      Ni  0.82364863  0.16457288  0.45667707     1.25400
C165        C  0.76742424  0.16418089  0.49510643     0.88000
C166        C  0.87945370  0.16384541  0.49689015     0.88000
C167        C  0.82313494  0.22043112  0.49665934     0.88000
C168        C  0.82359537  0.10844431  0.49599336     0.88200
O169        O  0.21064964  0.16813134  0.95754191    -0.74100
O170        O  0.12619603  0.16910855  0.95721916    -0.74200
O171        O  0.16893078  0.21078064  0.95708735    -0.74200
O172        O  0.16776879  0.12654982  0.95713173    -0.74300
O173        O  0.16860371  0.12645007  0.03079224    -0.74200
O174        O  0.16805485  0.21087420  0.03070330    -0.74200
O175        O  0.12633620  0.16837936  0.03060269    -0.74200
O176        O  0.21032226  0.16893013  0.03112999    -0.74200
Ni177      Ni  0.16841250  0.16866136  0.95459808     1.25400
Ni178      Ni  0.16833177  0.16867403  0.03340295     1.25400
C179        C  0.22436021  0.16803770  0.99455610     0.88000
C180        C  0.11224757  0.16866750  0.99395920     0.88000
C181        C  0.16874950  0.22469587  0.99384128     0.88000
C182        C  0.16779934  0.11266928  0.99391996     0.88200
O183        O  0.20048937  0.16141508  0.47107093    -0.74100
O184        O  0.11626455  0.16133190  0.46505633    -0.74200
O185        O  0.15864599  0.20341974  0.46692412    -0.74200
O186        O  0.15848676  0.11935059  0.46891234    -0.74300
O187        O  0.15537321  0.11997405  0.54246974    -0.74200
O188        O  0.15668231  0.20424416  0.54051559    -0.74200
O189        O  0.11396280  0.16261071  0.53858210    -0.74200
O190        O  0.19814336  0.16154693  0.54456616    -0.74200
Ni191      Ni  0.15850807  0.16135890  0.46537615     1.25400
Ni192      Ni  0.15594892  0.16213642  0.54417249     1.25400
C193        C  0.21320853  0.16116885  0.50881547     0.88000
C194        C  0.10125140  0.16166369  0.50086037     0.88000
C195        C  0.15778423  0.21765845  0.50334775     0.88000
C196        C  0.15687797  0.10588722  0.50593028     0.88200
O197        O  0.17234034  0.79265255  0.95149766    -0.74100
O198        O  0.16905897  0.87683250  0.95035924    -0.74200
O199        O  0.21265990  0.83632489  0.95213763    -0.74200
O200        O  0.12845677  0.83326596  0.94966729    -0.74300
O201        O  0.12743989  0.83283572  0.02321544    -0.74200
O202        O  0.21164407  0.83777203  0.02574333    -0.74200
O203        O  0.16722657  0.87737186  0.02380625    -0.74200
O204        O  0.17221711  0.79327978  0.02513549    -0.74200
Ni205      Ni  0.17060158  0.83474068  0.94829755     1.25400
Ni206      Ni  0.16953505  0.83531423  0.02710431     1.25400
C207        C  0.17366687  0.77918223  0.98858596     0.88000
C208        C  0.16795342  0.89104155  0.98681655     0.88000
C209        C  0.22597978  0.83779593  0.98934463     0.88000
C210        C  0.11404247  0.83277198  0.98597146     0.88200
O211        O  0.21302649  0.83013434  0.53363409    -0.74100
O212        O  0.12893139  0.82618555  0.53505582    -0.74200
O213        O  0.17309449  0.78608907  0.53372799    -0.74200
O214        O  0.16898627  0.87029639  0.53436964    -0.74300
O215        O  0.16917429  0.87040476  0.46104276    -0.74200
O216        O  0.17161421  0.78632686  0.46010297    -0.74200
O217        O  0.12821365  0.82709869  0.46148315    -0.74200
O218        O  0.21255690  0.82931620  0.45996405    -0.74200
Ni219      Ni  0.17101655  0.82819287  0.53681874     1.25400
Ni220      Ni  0.17035857  0.82835269  0.45802280     1.25400
C221        C  0.22660076  0.82967550  0.49665160     0.88000
C222        C  0.11470207  0.82577839  0.49855792     0.88000
C223        C  0.17334608  0.77240574  0.49673370     0.88000
C224        C  0.16836740  0.88438422  0.49768909     0.88200
C225        C  0.15996654  0.96519343  0.46346562    -0.22200
C226        C  0.16361687  0.97929550  0.50414818     0.09800
C227        C  0.16859184  0.96246587  0.54243308     0.10200
C228        C  0.17005596  0.93171173  0.53908881    -0.17100
C229        C  0.16670228  0.91720297  0.49823924    -0.27500
C230        C  0.16155447  0.93444142  0.45976501     0.18500
C231        C  0.16234622  0.01182427  0.50548335     0.12500
C232        C  0.17283793  0.97695344  0.58672950    -0.11900
H233        H  0.17402898  0.91903214  0.56870966     0.12800
C234        C  0.15740598  0.92113297  0.41456600    -0.22700
H235        H  0.15595210  0.97845044  0.43441347     0.08400
C236        C  0.18539870  0.02917941  0.48822163     0.04700
C237        C  0.18270973  0.05987764  0.48856608    -0.19900
C238        C  0.15776783  0.07358565  0.50628877    -0.12200
C239        C  0.13466729  0.05624202  0.52368581     0.13500
C240        C  0.13730231  0.02549698  0.52302072    -0.22700
C241        C  0.21302535  0.01535956  0.47021394    -0.05700
H242        H  0.20038855  0.07334303  0.47541522     0.15000
C243        C  0.10662137  0.06925794  0.54166558    -0.15900
H244        H  0.11947819  0.01202574  0.53572559     0.09300
H245        H  0.15298741  0.93813046  0.38906650     0.07200
H246        H  0.13833348  0.90585086  0.41482846     0.08400
H247        H  0.17766986  0.90930958  0.40444977     0.07400
H248        H  0.15274296  0.98935630  0.59594983     0.02300
H249        H  0.19181275  0.99232729  0.58523470     0.02800
H250        H  0.17722388  0.96058341  0.61314109     0.06300
H251        H  0.22917725  0.03222966  0.45934898     0.05300
H252        H  0.20769903  0.00133539  0.44132467    -0.00500
H253        H  0.22355921  0.00168898  0.49615608     0.01000
H254        H  0.08756648  0.06041606  0.52290559     0.04600
H255        H  0.10580481  0.09355443  0.53914312     0.06600
H256        H  0.10417870  0.06308692  0.57693945     0.07400
C257        C  0.14535416  0.03361344  0.97091850    -0.22200
C258        C  0.16790913  0.01825759  0.99228849     0.09800
C259        C  0.19021950  0.03388900  0.01464147     0.10200
C260        C  0.18936698  0.06477753  0.01530074    -0.17100
C261        C  0.16684234  0.08023709  0.99372076    -0.27500
C262        C  0.14431570  0.06442317  0.97174247     0.18500
C263        C  0.16751830  0.98573777  0.99107973     0.12500
C264        C  0.21494457  0.01793878  0.03749161    -0.11900
H265        H  0.20657264  0.07691587  0.03207161     0.12800
C266        C  0.11824491  0.07914157  0.95044475    -0.22700
H267        H  0.12813949  0.02142023  0.95414672     0.08400
C268        C  0.15213832  0.96922158  0.02296181     0.04700
C269        C  0.15252363  0.93838621  0.02055117    -0.19900
C270        C  0.16764145  0.92369198  0.98658680    -0.12200
C271        C  0.18292632  0.94048408  0.95442043     0.13500
C272        C  0.18262860  0.97132493  0.95717770    -0.22700
C273        C  0.13536536  0.98419338  0.05947563    -0.05700
H274        H  0.14078033  0.92570086  0.04516887     0.15000
C275        C  0.20046731  0.92628336  0.91796563    -0.15900
H276        H  0.19433785  0.98433442  0.93292925     0.09300
H277        H  0.09761396  0.07007901  0.96462674     0.07200
H278        H  0.11845367  0.07488974  0.91435782     0.08400
H279        H  0.11785345  0.10315254  0.95607907     0.07400
H280        H  0.22730718  0.00452366  0.01314288     0.02300
H281        H  0.20592981  0.00325233  0.06345878     0.02800
H282        H  0.23059540  0.03347236  0.05333769     0.06300
H283        H  0.12458241  0.96804274  0.08173524     0.05300
H284        H  0.11803114  0.99850957  0.04515289    -0.00500
H285        H  0.15057346  0.99785864  0.07955051     0.01000
H286        H  0.18559406  0.91404151  0.89543965     0.04600
H287        H  0.21704937  0.91107859  0.93227572     0.06600
H288        H  0.21238771  0.94283360  0.89776117     0.07400
C289        C  0.02187990  0.14384149  0.47015841    -0.22200
C290        C  0.00669653  0.16402473  0.49664734     0.09800
C291        C  0.02252249  0.18281493  0.52508132     0.10200
C292        C  0.05337152  0.18144120  0.52571585    -0.17100
C293        C  0.06874289  0.16144654  0.49891863    -0.27500
C294        C  0.05270641  0.14189439  0.47146671     0.18500
C295        C  0.97411398  0.16400328  0.49582945     0.12500
C296        C  0.00682286  0.20406538  0.55508049    -0.11900
H297        H  0.06556485  0.19614393  0.54710176     0.12800
C298        C  0.06694408  0.11767541  0.44496866    -0.22700
H299        H  0.00952667  0.12897305  0.44922541     0.08400
C300        C  0.95809872  0.18266270  0.46746789     0.04700
C301        C  0.92720568  0.18196698  0.46845023    -0.19900
C302        C  0.91199614  0.16292134  0.49702776    -0.12200
C303        C  0.92823199  0.14351825  0.52445356     0.13500
C304        C  0.95908024  0.14463788  0.52382584    -0.22700
C305        C  0.97362034  0.20316760  0.43609806    -0.05700
H306        H  0.91485223  0.19657864  0.44713417     0.15000
C307        C  0.91415327  0.12043616  0.55333571    -0.15900
H308        H  0.97156198  0.12998121  0.54493166     0.09300
H309        H  0.06324574  0.12165448  0.40923815     0.07200
H310        H  0.05686014  0.09624319  0.45404044     0.08400
H311        H  0.09085264  0.11547919  0.45094775     0.07400
H312        H  0.99212048  0.19176786  0.57780503     0.02300
H313        H  0.99345848  0.21964074  0.53525688     0.02800
H314        H  0.02250225  0.21708375  0.57533919     0.06300
H315        H  0.95780740  0.21621300  0.41614872     0.05300
H316        H  0.98759009  0.19025144  0.41314015    -0.00500
H317        H  0.98771528  0.21874166  0.45479203     0.01000
H318        H  0.92297434  0.09843455  0.54445166     0.04600
H319        H  0.89000878  0.11917975  0.54972187     0.06600
H320        H  0.91944264  0.12498229  0.58846324     0.07400
C321        C  0.97143240  0.14297328  0.02658301    -0.22200
C322        C  0.98504013  0.16685418  0.00555776     0.09800
C323        C  0.96770671  0.18881793  0.98546347     0.10200
C324        C  0.93702408  0.18611921  0.98620609    -0.17100
C325        C  0.92332587  0.16229088  0.00721391    -0.27500
C326        C  0.94069746  0.14033827  0.02762396     0.18500
C327        C  0.01749446  0.16769407  0.00303320     0.12500
C328        C  0.98155842  0.21535256  0.96403857    -0.11900
H329        H  0.92363056  0.20299168  0.97096095     0.12800
C330        C  0.92774996  0.11337648  0.04922987    -0.22700
H331        H  0.98490917  0.12602090  0.04154796     0.08400
C332        C  0.03489301  0.17562893  0.03956845     0.04700
C333        C  0.06559301  0.17579596  0.03528791    -0.19900
C334        C  0.07945995  0.16861891  0.99506839    -0.12200
C335        C  0.06163388  0.16126107  0.95808192     0.13500
C336        C  0.03094101  0.16055262  0.96292684    -0.22700
C337        C  0.02105901  0.18439593  0.08280197    -0.05700
H338        H  0.07878402  0.18187947  0.06364408     0.15000
C339        C  0.07424792  0.15406356  0.91334842    -0.15900
H340        H  0.01716999  0.15458209  0.93508676     0.09300
H341        H  0.93361939  0.11319074  0.08480974     0.07200
H342        H  0.93691430  0.09333767  0.03341333     0.08400
H343        H  0.90349774  0.11207976  0.04626967     0.07400
H344        H  0.99567892  0.20841595  0.93606212     0.02300
H345        H  0.99515757  0.22734769  0.98862710     0.02800
H346        H  0.96472092  0.23079517  0.95102519     0.06300
H347        H  0.03786723  0.19057232  0.10777398     0.05300
H348        H  0.00801680  0.16579892  0.09626663    -0.00500
H349        H  0.00637520  0.20360688  0.07761419     0.01000
H350        H  0.08919872  0.13492288  0.91568177     0.04600
H351        H  0.08629462  0.17338850  0.90011500     0.06600
H352        H  0.05681601  0.14837070  0.88908372     0.07400
C353        C  0.97209358  0.80849632  0.53022160    -0.22200
C354        C  0.98753035  0.82703799  0.50148081     0.09800
C355        C  0.97191097  0.84556752  0.47243803     0.10200
C356        C  0.94105028  0.84540231  0.47322387    -0.17100
C357        C  0.92541742  0.82709611  0.50232553    -0.27500
C358        C  0.94122287  0.80788479  0.53064465     0.18500
C359        C  0.02010005  0.82633853  0.50176525     0.12500
C360        C  0.98788147  0.86565526  0.44097307    -0.11900
H361        H  0.92901250  0.86000642  0.45134268     0.12800
C362        C  0.92662276  0.78548508  0.56017042    -0.22700
H363        H  0.98429914  0.79393206  0.55195552     0.08400
C364        C  0.03654278  0.84327070  0.53195776     0.04700
C365        C  0.06739164  0.84223809  0.53046862    -0.19900
C366        C  0.08217093  0.82451055  0.49959383    -0.12200
C367        C  0.06551085  0.80660555  0.47047380     0.13500
C368        C  0.03467775  0.80820081  0.47149045    -0.22700
C369        C  0.02149045  0.86264075  0.56535821    -0.05700
H370        H  0.08004577  0.85574590  0.55302966     0.15000
C371        C  0.07913293  0.78456638  0.43937539    -0.15900
H372        H  0.02184805  0.79479175  0.44898519     0.09300
H373        H  0.93140327  0.79079081  0.59522434     0.07200
H374        H  0.93552180  0.76328212  0.55269013     0.08400
H375        H  0.90253229  0.78410522  0.55571244     0.07400
H376        H  0.00172208  0.85244191  0.41823310     0.02300
H377        H  0.00213184  0.88105337  0.45977181     0.02800
H378        H  0.97235992  0.87887823  0.42075733     0.06300
H379        H  0.03758863  0.87459721  0.58633980     0.05300
H380        H  0.00739199  0.84902134  0.58722972    -0.00500
H381        H  0.00760739  0.87914686  0.54815797     0.01000
H382        H  0.06935690  0.76252594  0.44543714     0.04600
H383        H  0.10316325  0.78209126  0.44364503     0.06600
H384        H  0.07450781  0.79108562  0.40474364     0.07400
C385        C  0.85216742  0.96817988  0.47296743    -0.22200
C386        C  0.83204860  0.98186997  0.50126151     0.09800
C387        C  0.81517462  0.96479765  0.53068148     0.10200
C388        C  0.81867985  0.93414119  0.53092642    -0.17100
C389        C  0.83858306  0.92022292  0.50224108    -0.27500
C390        C  0.85601148  0.93756300  0.47345384     0.18500
C391        C  0.82971843  0.01427514  0.50040270     0.12500
C392        C  0.79327659  0.97893107  0.56137839    -0.11900
H393        H  0.80527914  0.92090713  0.55284985     0.12800
C394        C  0.87967776  0.92495001  0.44416552    -0.22700
H395        H  0.86539377  0.98156575  0.45100559     0.08400
C396        C  0.84773717  0.03191450  0.52749472     0.04700
C397        C  0.84487880  0.06256497  0.52562195    -0.19900
C398        C  0.82492904  0.07599468  0.49654019    -0.12200
C399        C  0.80677110  0.05825207  0.46946464     0.13500
C400        C  0.80937434  0.02749367  0.47186045    -0.22700
C401        C  0.87011716  0.01837392  0.55807024    -0.05700
H402        H  0.85865854  0.07615083  0.54652805     0.15000
C403        C  0.78403211  0.07151771  0.43922201    -0.15900
H404        H  0.79552133  0.01362911  0.45139368     0.09300
H405        H  0.90081579  0.93637914  0.45090078     0.07200
H406        H  0.87368021  0.92843095  0.40902171     0.08400
H407        H  0.88368179  0.90122241  0.44970376     0.07400
H408        H  0.77645043  0.99095605  0.54187502     0.02300
H409        H  0.80466542  0.99464765  0.58363108     0.02800
H410        H  0.78181491  0.96236536  0.58214275     0.06300
H411        H  0.88247590  0.03537718  0.57681250     0.05300
H412        H  0.88617811  0.00530510  0.53866886    -0.00500
H413        H  0.85898881  0.00373667  0.58217257     0.01000
H414        H  0.79492225  0.08489732  0.41332137     0.04600
H415        H  0.76880300  0.08562245  0.45849433     0.06600
H416        H  0.77074698  0.05432134  0.42239950     0.07400
C417        C  0.97173129  0.80920655  0.96123252    -0.22200
C418        C  0.98680954  0.82980073  0.98720030     0.09800
C419        C  0.97084609  0.84980867  0.01345706     0.10200
C420        C  0.93999146  0.84884274  0.01307853    -0.17100
C421        C  0.92477568  0.82845366  0.98676846    -0.27500
C422        C  0.94086648  0.80797567  0.96106232     0.18500
C423        C  0.01938525  0.82990441  0.98672601     0.12500
C424        C  0.98640687  0.87221686  0.04172330    -0.11900
H425        H  0.92766066  0.86434554  0.03293081     0.12800
C426        C  0.92652273  0.78373173  0.93466947    -0.22700
H427        H  0.98416327  0.79365182  0.94159118     0.08400
C428        C  0.03581403  0.81218092  0.01590540     0.04700
C429        C  0.06667719  0.81361546  0.01501428    -0.19900
C430        C  0.08145409  0.83204886  0.98508040    -0.12200
C431        C  0.06484239  0.84984914  0.95585353     0.13500
C432        C  0.03397152  0.84851276  0.95707635    -0.22700
C433        C  0.02072575  0.79181811  0.04795761    -0.05700
H434        H  0.07933950  0.80005857  0.03745024     0.15000
C435        C  0.07937067  0.87117359  0.92456214    -0.15900
H436        H  0.02109710  0.86219026  0.93511321     0.09300
H437        H  0.93546779  0.76215241  0.94542263     0.07200
H438        H  0.93146435  0.78682516  0.89908459     0.08400
H439        H  0.90237254  0.78261690  0.93890401     0.07400
H440        H  0.00003999  0.88680553  0.02060669     0.02300
H441        H  0.00081908  0.86090912  0.06595506     0.02800
H442        H  0.97063347  0.88617055  0.06027802     0.06300
H443        H  0.03680090  0.77953315  0.06851345     0.05300
H444        H  0.00717166  0.77558171  0.02958261    -0.00500
H445        H  0.00629000  0.80466200  0.07033513     0.01000
H446        H  0.06295118  0.88456517  0.90630130     0.04600
H447        H  0.09260207  0.85904092  0.89978156     0.06600
H448        H  0.09379218  0.88647323  0.94329283     0.07400
C449        C  0.81604363  0.02613298  0.03298558    -0.22200
C450        C  0.83682222  0.01230393  0.00590326     0.09800
C451        C  0.85670732  0.02945264  0.98116013     0.10200
C452        C  0.85516141  0.06024011  0.98366158    -0.17100
C453        C  0.83424793  0.07425603  0.01051079    -0.27500
C454        C  0.81425192  0.05693089  0.03528472     0.18500
C455        C  0.83663365  0.97980890  0.00266896     0.12500
C456        C  0.87967342  0.01522567  0.95241276    -0.11900
H457        H  0.87050234  0.07346361  0.96481871     0.12800
C458        C  0.78983259  0.06987529  0.06264343    -0.22700
H459        H  0.80065354  0.01280341  0.05153695     0.08400
C460        C  0.85082394  0.96209404  0.03429463     0.04700
C461        C  0.85009343  0.93139151  0.02960874    -0.19900
C462        C  0.83564323  0.91794632  0.99378994    -0.12200
C463        C  0.82122571  0.93589428  0.96218845     0.13500
C464        C  0.82190529  0.96663230  0.96715008    -0.22700
C465        C  0.86695015  0.97562395  0.07271996    -0.05700
H466        H  0.86117381  0.91783421  0.05384449     0.15000
C467        C  0.80429342  0.92303124  0.92396747    -0.15900
H468        H  0.81092886  0.98051777  0.94328028     0.09300
H469        H  0.79326924  0.06425567  0.09793481     0.07200
H470        H  0.76841061  0.06063986  0.05168879     0.08400
H471        H  0.78825499  0.09399876  0.05939728     0.07400
H472        H  0.86887850  0.00163507  0.92661517     0.02300
H473        H  0.89408038  0.00097426  0.97288045     0.02800
H474        H  0.89372632  0.03182991  0.93569447     0.06300
H475        H  0.87710726  0.95863136  0.09420946     0.05300
H476        H  0.85142665  0.98868830  0.09308538    -0.00500
H477        H  0.88470099  0.99026728  0.06038631     0.01000
H478        H  0.79299750  0.94032745  0.90438617     0.04600
H479        H  0.78726203  0.90758777  0.93641083     0.06600
H480        H  0.81947530  0.91129796  0.90135874     0.07400
C481        C  0.15597033  0.63161712  0.52767573    -0.22200
C482        C  0.17433118  0.64553325  0.49700769     0.09800
C483        C  0.19252635  0.62853207  0.46934590     0.10200
C484        C  0.19136849  0.59772374  0.47219891    -0.17100
C485        C  0.17261355  0.58361697  0.50241886    -0.27500
C486        C  0.15524693  0.60086220  0.53139179     0.18500
C487        C  0.17460578  0.67803795  0.49535837     0.12500
C488        C  0.21310397  0.64293061  0.43690058    -0.11900
H489        H  0.20494437  0.58457802  0.45046027     0.12800
C490        C  0.13688571  0.58797130  0.56807100    -0.22700
H491        H  0.14257643  0.64490165  0.54951095     0.08400
C492        C  0.15464981  0.69375334  0.46866492     0.04700
C493        C  0.15518282  0.72460338  0.46925283    -0.19900
C494        C  0.17514883  0.74002238  0.49604555    -0.12200
C495        C  0.19589596  0.72415574  0.52159060     0.13500
C496        C  0.19499348  0.69331192  0.52138546    -0.22700
C497        C  0.13270107  0.67793274  0.43991324    -0.05700
H498        H  0.13952021  0.73677278  0.44934347     0.15000
C499        C  0.22000843  0.73873540  0.54795167    -0.15900
H500        H  0.21059032  0.68101724  0.54126841     0.09300
H501        H  0.11332229  0.59305527  0.56222152     0.07200
H502        H  0.14366934  0.59786705  0.60002343     0.08400
H503        H  0.13937364  0.56389809  0.57160621     0.07400
H504        H  0.22899550  0.65715202  0.45481811     0.02300
H505        H  0.20037981  0.65660352  0.41329330     0.02800
H506        H  0.22577992  0.62642264  0.41772755     0.06300
H507        H  0.11871444  0.69356042  0.42108807     0.05300
H508        H  0.11811068  0.66407231  0.46068434    -0.00500
H509        H  0.14441939  0.66370574  0.41590313     0.01000
H510        H  0.21687237  0.73394600  0.58357540     0.04600
H511        H  0.22105667  0.76286633  0.54336605     0.06600
H512        H  0.24163869  0.72981286  0.53744297     0.07400
C513        C  0.18983529  0.35750336  0.52312702    -0.22200
C514        C  0.16694881  0.34428860  0.49948711     0.09800
C515        C  0.14598704  0.36203987  0.47792760     0.10200
C516        C  0.14812086  0.39275006  0.48133808    -0.17100
C517        C  0.17093017  0.40629405  0.50534760    -0.27500
C518        C  0.19229204  0.38818966  0.52639958     0.18500
C519        C  0.16466755  0.31179386  0.49950877     0.12500
C520        C  0.12169795  0.34858437  0.45069607    -0.11900
H521        H  0.13199943  0.40632667  0.46453573     0.12800
C522        C  0.21745291  0.39958156  0.55397158    -0.22700
H523        H  0.20572504  0.34363282  0.53992213     0.08400
C524        C  0.18406505  0.29403896  0.47481085     0.04700
C525        C  0.18091194  0.26334702  0.47634091    -0.19900
C526        C  0.15898201  0.25005455  0.50221128    -0.12200
C527        C  0.13929451  0.26794481  0.52647604     0.13500
C528        C  0.14272193  0.29857937  0.52523676    -0.22700
C529        C  0.20788326  0.30743647  0.44665742    -0.05700
H530        H  0.19595059  0.24958858  0.45774973     0.15000
C531        C  0.11373247  0.25581693  0.55249209    -0.15900
H532        H  0.12783585  0.31237660  0.54407723     0.09300
H533        H  0.23861251  0.39247153  0.53911237     0.07200
H534        H  0.21587041  0.39032698  0.58782653     0.08400
H535        H  0.21804714  0.42360590  0.55733185     0.07400
H536        H  0.10733674  0.33477299  0.47185276     0.02300
H537        H  0.13133997  0.33474257  0.42419916     0.02800
H538        H  0.10772560  0.36565572  0.43492931     0.06300
H539        H  0.22064620  0.29036729  0.42874350     0.05300
H540        H  0.22344914  0.32003425  0.46763501    -0.00500
H541        H  0.19791765  0.32243401  0.42188802     0.01000
H542        H  0.11665627  0.26115486  0.58798889     0.04600
H543        H  0.11096793  0.23174399  0.54908147     0.06600
H544        H  0.09301188  0.26608571  0.54065607     0.07400
C545        C  0.15617916  0.63959953  0.02714132    -0.22200
C546        C  0.17640608  0.65248483  0.99813018     0.09800
C547        C  0.19612486  0.63455084  0.97444391     0.10200
C548        C  0.19466774  0.60390735  0.97956934    -0.17100
C549        C  0.17393138  0.59075978  0.00781506    -0.27500
C550        C  0.15493386  0.60898414  0.03289865     0.18500
C551        C  0.17668978  0.68488727  0.99351155     0.12500
C552        C  0.21836771  0.64777639  0.94337442    -0.11900
H553        H  0.20940958  0.59008293  0.96056591     0.12800
C554        C  0.13399917  0.59729144  0.06729868    -0.22700
H555        H  0.14147912  0.65363579  0.04593039     0.08400
C556        C  0.15781326  0.69937205  0.96365647     0.04700
C557        C  0.15793813  0.73023198  0.96182226    -0.19900
C558        C  0.17652982  0.74683695  0.98923750    -0.25000
C559        C  0.19660918  0.73214577  0.01745608     0.13500
C560        C  0.19600909  0.70132239  0.01978785    -0.22700
C561        C  0.13738417  0.68223896  0.93409708    -0.05700
H562        H  0.14291190  0.74145678  0.93977484     0.15000
C563        C  0.21973731  0.74796278  0.04421421    -0.15900
H564        H  0.21093079  0.68998753  0.04188513     0.09300
H565        H  0.11099499  0.60178565  0.05698654     0.07200
H566        H  0.13820709  0.60857289  0.09921232     0.08400
H567        H  0.13649507  0.57344565  0.07359304     0.07400
H568        H  0.23330604  0.66267624  0.96187062     0.02300
H569        H  0.20692980  0.66051009  0.91723429     0.02800
H570        H  0.23196647  0.63060776  0.92713851     0.06300
H571        H  0.12418978  0.69695843  0.91254889     0.05300
H572        H  0.12197195  0.66899910  0.95443991    -0.00500
H573        H  0.15032438  0.66727893  0.91262777     0.01000
H574        H  0.21544976  0.74461036  0.07993576     0.04600
H575        H  0.22081910  0.77187039  0.03741143     0.06600
H576        H  0.24174463  0.73883066  0.03614592     0.07400
C577        C  0.18621414  0.30478701  0.96779097    -0.22200
C578        C  0.16535112  0.31921067  0.99403465     0.09800
C579        C  0.14592201  0.30260997  0.02039026     0.10200
C580        C  0.14783340  0.27177412  0.02002265    -0.17100
C581        C  0.16872022  0.25720566  0.99377906    -0.27500
C582        C  0.18848483  0.27398471  0.96775684     0.18500
C583        C  0.16546856  0.35178748  0.99545577     0.12500
C584        C  0.12334167  0.31749841  0.04906433    -0.11900
H585        H  0.13274962  0.25895543  0.03992951     0.12800
C586        C  0.21315936  0.26050067  0.94132992    -0.22700
H587        H  0.20141203  0.31772416  0.94821966     0.08400
C588        C  0.18499762  0.36713488  0.02332635     0.04700
C589        C  0.18464869  0.39797907  0.02359779    -0.19900
C590        C  0.16524891  0.41392549  0.99656483    -0.12200
C591        C  0.14590642  0.39842748  0.96800511     0.13500
C592        C  0.14606261  0.36749802  0.96833203    -0.22700
C593        C  0.20605574  0.35091088  0.05303963    -0.05700
H594        H  0.19945631  0.40973957  0.04539848     0.15000
C595        C  0.12583513  0.41336435  0.93527248    -0.15900
H596        H  0.13134659  0.35551865  0.94662919     0.09300
H597        H  0.23439576  0.27049480  0.95159050     0.07200
H598        H  0.20964893  0.26498259  0.90569003     0.08400
H599        H  0.21536692  0.23646847  0.94609831     0.07400
H600        H  0.10825072  0.33075946  0.02821675     0.02300
H601        H  0.13447507  0.33218854  0.07314039     0.02800
H602        H  0.10995438  0.30130874  0.06779726     0.06300
H603        H  0.21959156  0.36625249  0.07311478     0.05300
H604        H  0.22116713  0.33723473  0.03288489    -0.00500
H605        H  0.19358928  0.33647205  0.07593755     0.01000
H606        H  0.13035611  0.40474272  0.90164961     0.04600
H607        H  0.12881160  0.43747755  0.93362263     0.06600
H608        H  0.10257135  0.40855163  0.94380177     0.07400
C609        C  0.18784734  0.52465331  0.80156586    -0.22200
C610        C  0.16889899  0.50564975  0.77887103     0.09800
C611        C  0.14951134  0.48732198  0.80264103     0.10200
C612        C  0.14950330  0.48845990  0.84890212    -0.17100
C613        C  0.16880877  0.50712917  0.87186531    -0.27500
C614        C  0.18790867  0.52589274  0.84782529     0.18500
C615        C  0.17040287  0.50450549  0.73017853     0.12500
C616        C  0.12935410  0.46611130  0.77919058    -0.11900
H617        H  0.13493629  0.47409413  0.86728015     0.12800
C618        C  0.20790081  0.54816058  0.86939686    -0.22700
H619        H  0.20258248  0.53877531  0.78297171     0.08400
C620        C  0.15171362  0.52164374  0.70345491     0.04700
C621        C  0.15301092  0.51842904  0.65743680    -0.19900
C622        C  0.17291615  0.49885752  0.63742938    -0.12200
C623        C  0.19191710  0.48194080  0.66464494     0.13500
C624        C  0.19047814  0.48522263  0.71060409    -0.22700
C625        C  0.13064294  0.54342336  0.72354520    -0.05700
H626        H  0.13849804  0.53152052  0.63687763     0.15000
C627        C  0.21299851  0.45920330  0.64727102    -0.15900
H628        H  0.20469410  0.47205115  0.73152451     0.09300
H629        H  0.20320691  0.57035292  0.85575750     0.07200
H630        H  0.23118351  0.54250831  0.86232399     0.08400
H631        H  0.20497310  0.54967910  0.90554239     0.07400
H632        H  0.14256899  0.45042968  0.75930625     0.02300
H633        H  0.11424209  0.47830034  0.75699397     0.02800
H634        H  0.11580868  0.45321356  0.80279099     0.06300
H635        H  0.11776348  0.55522929  0.69789850     0.05300
H636        H  0.14309403  0.55998979  0.74298015    -0.00500
H637        H  0.11495085  0.53191562  0.74565238     0.01000
H638        H  0.23588367  0.46560812  0.65580343     0.04600
H639        H  0.21156875  0.45620683  0.61135215     0.06600
H640        H  0.20807358  0.43754758  0.66259629     0.07400
C641        C  0.15108467  0.47601936  0.20598366    -0.22200
C642        C  0.16946258  0.49492794  0.22992341     0.09800
C643        C  0.18850621  0.51424260  0.20732219     0.10200
C644        C  0.18823530  0.51471664  0.16097590    -0.17100
C645        C  0.16941417  0.49620082  0.13682545    -0.27500
C646        C  0.15110994  0.47603814  0.15966295     0.18500
C647        C  0.16868758  0.49382983  0.27873287     0.12500
C648        C  0.20900045  0.53437158  0.23217370    -0.11900
H649        H  0.20244119  0.52990776  0.14351694     0.12800
C650        C  0.13234105  0.45333251  0.13666415    -0.22700
H651        H  0.13695121  0.46081652  0.22361032     0.08400
C652        C  0.14914004  0.51154089  0.30315834     0.04700
C653        C  0.14966378  0.51022826  0.34944029    -0.19900
C654        C  0.16920831  0.49147319  0.37177437    -0.12200
C655        C  0.18774450  0.47258841  0.34703155     0.13500
C656        C  0.18758942  0.47444813  0.30079191    -0.22700
C657        C  0.12792907  0.53195242  0.28032867    -0.05700
H658        H  0.13519752  0.52438255  0.36829510     0.15000
C659        C  0.20696641  0.44934368  0.36780729    -0.15900
H660        H  0.20202162  0.46035867  0.28171550     0.09300
H661        H  0.10877843  0.45761554  0.14380275     0.07200
H662        H  0.13811544  0.43109774  0.14916804     0.08400
H663        H  0.13547311  0.45280967  0.10045415     0.07400
H664        H  0.22421305  0.52111943  0.25283659     0.02300
H665        H  0.19614051  0.54930274  0.25378545     0.02800
H666        H  0.22241499  0.54809584  0.20947525     0.06300
H667        H  0.11416216  0.54425112  0.30432251     0.05300
H668        H  0.11307118  0.51907054  0.25855729    -0.00500
H669        H  0.14022797  0.54817371  0.26008145     0.01000
H670        H  0.20179168  0.42761217  0.35291411     0.04600
H671        H  0.20361306  0.44698284  0.40381139     0.06600
H672        H  0.23045035  0.45454949  0.36144675     0.07400
C673        C  0.35272992  0.19562293  0.49543313    -0.22200
C674        C  0.33985781  0.17131539  0.51616081     0.09800
C675        C  0.35784441  0.14991798  0.53610761     0.10200
C676        C  0.38848097  0.15325633  0.53463827    -0.17100
C677        C  0.40178329  0.17739673  0.51336668    -0.27500
C678        C  0.38341691  0.19894963  0.49323465     0.18500
C679        C  0.30745277  0.16824773  0.51540045     0.12500
C680        C  0.34465457  0.12358784  0.55896738    -0.11900
H681        H  0.40218974  0.13673732  0.55028618     0.12800
C682        C  0.39453320  0.22503309  0.46734536    -0.22700
H683        H  0.33862340  0.21184719  0.47985589     0.08400
C684        C  0.28951508  0.18272938  0.54643156     0.04700
C685        C  0.25887451  0.17929321  0.54406857    -0.19900
C686        C  0.24574820  0.16163986  0.51139108    -0.12200
C687        C  0.26401419  0.14617251  0.48132179     0.13500
C688        C  0.29458999  0.15020718  0.48327113    -0.22700
C689        C  0.30275660  0.20183954  0.58188458    -0.05700
H690        H  0.24505390  0.19102196  0.56728890     0.15000
C691        C  0.25252149  0.12429284  0.44804710    -0.15900
H692        H  0.30862728  0.13870351  0.46003951     0.09300
H693        H  0.38703601  0.24566624  0.48341078     0.07200
H694        H  0.38538907  0.22422035  0.43335064     0.08400
H695        H  0.41857070  0.22608119  0.46400212     0.07400
H696        H  0.33162868  0.11043114  0.53504951     0.02300
H697        H  0.33005808  0.13100245  0.58614098     0.02800
H698        H  0.36183965  0.10907316  0.57328392     0.06300
H699        H  0.28563583  0.21139503  0.60373329     0.05300
H700        H  0.31518179  0.22023070  0.56656734    -0.00500
H701        H  0.31793816  0.18857475  0.60258069     0.01000
H702        H  0.25657385  0.13264103  0.41414590     0.04600
H703        H  0.22884553  0.11934454  0.45182397     0.06600
H704        H  0.26427906  0.10305019  0.45217517     0.07400
C705        C  0.62808720  0.19018607  0.52937364    -0.22200
C706        C  0.64073746  0.17227952  0.49686665     0.09800
C707        C  0.62247045  0.15660863  0.46749697     0.10200
C708        C  0.59181726  0.15875520  0.47187236    -0.17100
C709        C  0.57901396  0.17645652  0.50466675    -0.27500
C710        C  0.59742949  0.19239866  0.53390925     0.18500
C711        C  0.67320895  0.16988647  0.49481503     0.12500
C712        C  0.63534162  0.13794049  0.43126211    -0.11900
H713        H  0.57772716  0.14673291  0.44931976     0.12800
C714        C  0.58587645  0.21086851  0.57144661    -0.22700
H715        H  0.64228129  0.20207591  0.55193447     0.08400
C716        C  0.69048451  0.19180867  0.47448272     0.04700
C717        C  0.72122158  0.18892483  0.47427350    -0.19900
C718        C  0.73501789  0.16478208  0.49438702    -0.12200
C719        C  0.71764645  0.14243006  0.51388705     0.13500
C720        C  0.68689964  0.14537592  0.51402127    -0.22700
C721        C  0.67646093  0.21821268  0.45306772    -0.05700
H722        H  0.73460577  0.20590421  0.45919500     0.15000
C723        C  0.73060515  0.11488292  0.53367105    -0.15900
H724        H  0.67348806  0.12843581  0.52915252     0.09300
H725        H  0.59226820  0.23419895  0.56624384     0.07200
H726        H  0.59564442  0.20309343  0.60296405     0.08400
H727        H  0.56171494  0.20972688  0.57536980     0.07400
H728        H  0.64899857  0.12014994  0.44574054     0.02300
H729        H  0.64926269  0.15178721  0.40944154     0.02800
H730        H  0.61794904  0.12757789  0.41069671     0.06300
H731        H  0.69313322  0.23309592  0.43822579     0.05300
H732        H  0.66391058  0.23092570  0.47802428    -0.00500
H733        H  0.66127209  0.21091276  0.42651298     0.01000
H734        H  0.72480803  0.11363754  0.56921731     0.04600
H735        H  0.75486177  0.11377910  0.53065333     0.06600
H736        H  0.72139440  0.09532055  0.51655643     0.07400
C737        C  0.36737690  0.15560121  0.96952591    -0.22200
C738        C  0.35129198  0.17237531  0.99984003     0.09800
C739        C  0.36619207  0.18961697  0.03145493     0.10200
C740        C  0.39706000  0.18965510  0.03206883    -0.17100
C741        C  0.41324530  0.17267475  0.00195669    -0.27500
C742        C  0.39820915  0.15580595  0.96971874     0.18500
C743        C  0.31880095  0.17136758  0.99782054     0.12500
C744        C  0.34952917  0.20802742  0.06433881    -0.11900
H745        H  0.40861781  0.20263388  0.05654883     0.12800
C746        C  0.41367364  0.13875505  0.93387936    -0.22700
H747        H  0.35575962  0.14260693  0.94512357     0.08400
C748        C  0.30292626  0.18726717  0.96570088     0.04700
C749        C  0.27212117  0.18523967  0.96486685    -0.19900
C750        C  0.25688123  0.16749313  0.99518452    -0.12200
C751        C  0.27306787  0.15066960  0.02632311     0.13500
C752        C  0.30376775  0.15334441  0.02768275    -0.22700
C753        C  0.31850963  0.20666563  0.93284713    -0.05700
H754        H  0.25981546  0.19803132  0.94088605     0.15000
C755        C  0.25916957  0.12862765  0.05721074    -0.15900
H756        H  0.31623191  0.14064807  0.05162890     0.09300
H757        H  0.40564321  0.14624934  0.90112385     0.07200
H758        H  0.40875958  0.11494597  0.93753469     0.08400
H759        H  0.43780729  0.14177083  0.93398656     0.07400
H760        H  0.33551367  0.19366545  0.08522733     0.02300
H761        H  0.33539292  0.22407571  0.04662745     0.02800
H762        H  0.36458929  0.22047622  0.08638757     0.06300
H763        H  0.30276643  0.21799177  0.91053250     0.05300
H764        H  0.33353737  0.19322884  0.91220611    -0.00500
H765        H  0.33146984  0.22369189  0.95056505     0.01000
H766        H  0.27016372  0.10697367  0.05317738     0.04600
H767        H  0.23552775  0.12481883  0.05081791     0.06600
H768        H  0.26204397  0.13606066  0.09185896     0.07400
C769        C  0.63836491  0.19662539  0.02775037    -0.22200
C770        C  0.65213324  0.17067589  0.01422551     0.09800
C771        C  0.63508489  0.14608610  0.00240474     0.10200
C772        C  0.60438401  0.14823345  0.00338383    -0.17100
C773        C  0.59008714  0.17428987  0.01661288    -0.27500
C774        C  0.60760031  0.19876997  0.03007800     0.18500
C775        C  0.68456331  0.16933571  0.01406038     0.12500
C776        C  0.64935409  0.11764248  0.98845871    -0.11900
H777        H  0.59149294  0.12934130  0.99316693     0.12800
C778        C  0.59570401  0.22719396  0.04872286    -0.22700
H779        H  0.65185850  0.21521295  0.03759099     0.08400
C780        C  0.70106279  0.17877425  0.97745182     0.04700
C781        C  0.73178847  0.17628507  0.97858256    -0.19900
C782        C  0.74650218  0.16430241  0.01538612    -0.12200
C783        C  0.72947140  0.15417416  0.05187457     0.13500
C784        C  0.69881852  0.15743296  0.05078568    -0.22700
C785        C  0.68616542  0.19133663  0.93721626    -0.05700
H786        H  0.74439623  0.18407951  0.95054816     0.15000
C787        C  0.74171844  0.13870367  0.09199010    -0.15900
H788        H  0.68573303  0.14985321  0.07847465     0.09300
H789        H  0.60107498  0.24558886  0.02598032     0.07200
H790        H  0.60631872  0.23159041  0.08110561     0.08400
H791        H  0.57189092  0.22738746  0.05503278     0.07400
H792        H  0.66315969  0.10898432  0.01575860     0.02300
H793        H  0.66339120  0.12147260  0.95903668     0.02800
H794        H  0.63279179  0.10058472  0.97990650     0.06300
H795        H  0.70229516  0.19752144  0.91129381     0.05300
H796        H  0.67358226  0.21133431  0.94645347    -0.00500
H797        H  0.67084391  0.17480578  0.92303502     0.01000
H798        H  0.73747379  0.15223223  0.12182903     0.04600
H799        H  0.76535886  0.13378930  0.09060737     0.06600
H800        H  0.73044448  0.11717013  0.09602218     0.07400
C801        C  0.51482716  0.15444674  0.71116776    -0.22200
C802        C  0.49643489  0.17285927  0.73581985     0.09800
C803        C  0.47731847  0.19246082  0.71395465     0.10200
C804        C  0.47693206  0.19309927  0.66759694    -0.17100
C805        C  0.49529272  0.17459323  0.64269551    -0.27500
C806        C  0.51490105  0.15533847  0.66488610     0.18500
C807        C  0.49860590  0.17206887  0.78456358     0.12500
C808        C  0.45721789  0.21248321  0.73959018    -0.11900
H809        H  0.46199466  0.20786277  0.65069969     0.12800
C810        C  0.53729064  0.13649311  0.64142418    -0.22700
H811        H  0.52981708  0.13981875  0.72824935     0.08400
C812        C  0.48381426  0.15057582  0.80971047     0.04700
C813        C  0.48687370  0.15062771  0.85582697    -0.19900
C814        C  0.50438187  0.17174318  0.87733853    -0.12200
C815        C  0.52026941  0.19247513  0.85171818     0.13500
C816        C  0.51671350  0.19264945  0.80571309    -0.22700
C817        C  0.46442674  0.12794316  0.78792041    -0.05700
H818        H  0.47495841  0.13456436  0.87519079     0.15000
C819        C  0.54214693  0.21384104  0.87113984    -0.15900
H820        H  0.52862377  0.20862087  0.78602487     0.09300
H821        H  0.53222290  0.11289955  0.64717761     0.07200
H822        H  0.55953753  0.14130730  0.65479249     0.08400
H823        H  0.53843615  0.14050780  0.60546199     0.07400
H824        H  0.47044252  0.22742399  0.76075575     0.02300
H825        H  0.44237613  0.19915275  0.76075405     0.02800
H826        H  0.44342269  0.22621111  0.71742019     0.06300
H827        H  0.45418888  0.11293591  0.81244731     0.05300
H828        H  0.47763372  0.11443771  0.76471780    -0.00500
H829        H  0.44655077  0.13910792  0.76938897     0.01000
H830        H  0.56358141  0.21142251  0.85393678     0.04600
H831        H  0.54653696  0.21009684  0.90663016     0.06600
H832        H  0.53412982  0.23669795  0.86644894     0.07400
C833        C  0.47655720  0.19875111  0.30460645    -0.22200
C834        C  0.49373755  0.17715081  0.28419164     0.09800
C835        C  0.50909497  0.15654621  0.31012722     0.10200
C836        C  0.50689009  0.15801162  0.35621033    -0.17100
C837        C  0.48957331  0.17954658  0.37710801    -0.27500
C838        C  0.47385084  0.20003668  0.35071651     0.18500
C839        C  0.49497340  0.17624674  0.23546946     0.12500
C840        C  0.52774283  0.13299775  0.28913994    -0.11900
H841        H  0.51901685  0.14233686  0.37608924     0.12800
C842        C  0.45293863  0.22261125  0.36910488    -0.22700
H843        H  0.46458200  0.21431847  0.28426931     0.08400
C844        C  0.47393392  0.16053577  0.21063952     0.04700
C845        C  0.47612811  0.16017472  0.16443108    -0.19900
C846        C  0.49881288  0.17531303  0.14268587    -0.12200
C847        C  0.52026301  0.19053154  0.16781296     0.13500
C848        C  0.51781891  0.19109696  0.21393426    -0.22700
C849        C  0.44920113  0.14424322  0.23296313    -0.05700
H850        H  0.45987243  0.14838063  0.14514928     0.15000
C851        C  0.54669010  0.20527226  0.14749432    -0.15900
H852        H  0.53413681  0.20273956  0.23331100     0.09300
H853        H  0.43095146  0.21973472  0.35366664     0.07200
H854        H  0.46115950  0.24504610  0.36142619     0.08400
H855        H  0.44973398  0.22077642  0.40501019     0.07400
H856        H  0.54543471  0.14331587  0.26917296     0.02300
H857        H  0.51392361  0.11899275  0.26740209     0.02800
H858        H  0.53822179  0.11859417  0.31424409     0.06300
H859        H  0.43467796  0.13306570  0.20869094     0.05300
H860        H  0.43560626  0.15990000  0.25230184    -0.00500
H861        H  0.45830381  0.12728490  0.25552206     0.01000
H862        H  0.54581058  0.22931235  0.15385638     0.04600
H863        H  0.54830208  0.20157818  0.11153880     0.06600
H864        H  0.56707224  0.19623604  0.16248484     0.07400
C865        C  0.80639249  0.30025232  0.52494903    -0.22200
C866        C  0.82773554  0.31487783  0.49982636     0.09800
C867        C  0.84701657  0.29849875  0.47291702     0.10200
C868        C  0.84449849  0.26769255  0.47175705    -0.17100
C869        C  0.82327156  0.25293974  0.49719139    -0.27500
C870        C  0.80360562  0.26951781  0.52360100     0.18500
C871        C  0.82867592  0.34746973  0.50117764     0.12500
C872        C  0.87020548  0.31354624  0.44552148    -0.11900
H873        H  0.85953935  0.25501898  0.45159187     0.12800
C874        C  0.77865017  0.25590051  0.54931275    -0.22700
H875        H  0.79136941  0.31301209  0.54506337     0.08400
C876        C  0.80912909  0.36453452  0.47566533     0.04700
C877        C  0.81008458  0.39530884  0.47894056    -0.19900
C878        C  0.83017925  0.40951110  0.50702587    -0.12200
C879        C  0.84935475  0.39226888  0.53341732     0.13500
C880        C  0.84856779  0.36146092  0.52962889    -0.22700
C881        C  0.78749749  0.35021552  0.44466945    -0.05700
H882        H  0.79528937  0.40842571  0.45885817     0.15000
C883        C  0.86985415  0.40527602  0.56738857    -0.15900
H884        H  0.86316878  0.34816566  0.54979810     0.09300
H885        H  0.75761543  0.26643487  0.53942192     0.07200
H886        H  0.78216988  0.25961794  0.58515122     0.08400
H887        H  0.77602595  0.23200864  0.54342381     0.07400
H888        H  0.88542960  0.32593565  0.46736451     0.02300
H889        H  0.85963563  0.32905997  0.42206866     0.02800
H890        H  0.88336792  0.29751238  0.42617518     0.06300
H891        H  0.77411337  0.36676980  0.42666008     0.05300
H892        H  0.77227461  0.33583515  0.46352760    -0.00500
H893        H  0.79948909  0.33675506  0.41996365     0.01000
H894        H  0.86531664  0.39515872  0.60006457     0.04600
H895        H  0.86727339  0.42931654  0.57154679     0.06600
H896        H  0.89298610  0.40051535  0.55808735     0.07400
C897        C  0.85369692  0.63366717  0.47120244    -0.22200
C898        C  0.83421266  0.64876852  0.49887880     0.09800
C899        C  0.81377532  0.63284495  0.52445703     0.10200
C900        C  0.81356198  0.60201570  0.52223461    -0.17100
C901        C  0.83328942  0.58666414  0.49497245    -0.27500
C902        C  0.85321792  0.60282815  0.46823685     0.18500
C903        C  0.83473038  0.68134705  0.49938200     0.12500
C904        C  0.79240994  0.64843347  0.55439268    -0.11900
H905        H  0.79815537  0.58979515  0.54250305     0.12800
C906        C  0.87322431  0.58872096  0.43464486    -0.22700
H907        H  0.86895082  0.64613032  0.45092228     0.08400
C908        C  0.85411684  0.69713729  0.52697212     0.04700
C909        C  0.85308354  0.72800718  0.52713604    -0.19900
C910        C  0.83320462  0.74340476  0.50017690    -0.12200
C911        C  0.81338650  0.72743837  0.47310290     0.13500
C912        C  0.81474432  0.69660860  0.47267762    -0.22700
C913        C  0.87578864  0.68138146  0.55621200    -0.05700
H914        H  0.86817749  0.74021213  0.54796883     0.15000
C915        C  0.78965187  0.74186164  0.44583973    -0.15900
H916        H  0.79958546  0.68427779  0.45204154     0.09300
H917        H  0.89651831  0.59233469  0.44428050     0.07200
H918        H  0.86942491  0.59898844  0.40185741     0.08400
H919        H  0.86938122  0.56486006  0.43038573     0.07400
H920        H  0.77803605  0.66315584  0.53465756     0.02300
H921        H  0.80466105  0.66173930  0.57904652     0.02800
H922        H  0.77813048  0.63267904  0.57248417     0.06300
H923        H  0.88927500  0.69704102  0.57582435     0.05300
H924        H  0.89088157  0.66791642  0.53570460    -0.00500
H925        H  0.86384703  0.66678085  0.57950286     0.01000
H926        H  0.79367866  0.73748499  0.41029870     0.04600
H927        H  0.78809971  0.76592232  0.45088054     0.06600
H928        H  0.76794099  0.73246033  0.45503858     0.07400
C929        C  0.85472348  0.29843484  0.98185737    -0.22200
C930        C  0.83509394  0.31324306  0.00966149     0.09800
C931        C  0.81683751  0.29709281  0.03840382     0.10200
C932        C  0.81857138  0.26628004  0.03868100    -0.17100
C933        C  0.83774157  0.25126592  0.01020343    -0.27500
C934        C  0.85641223  0.26760784  0.98178255     0.18500
C935        C  0.83359313  0.34571351  0.00757553     0.12500
C936        C  0.79537704  0.31241086  0.06847589    -0.11900
H937        H  0.80432365  0.25380557  0.06038796     0.12800
C938        C  0.87895648  0.25364574  0.95191491    -0.22700
H939        H  0.86883947  0.31105049  0.96009633     0.08400
C940        C  0.85357348  0.36358161  0.03090187     0.04700
C941        C  0.85113474  0.39427012  0.02779363    -0.19900
C942        C  0.82892576  0.40760212  0.00233720    -0.12200
C943        C  0.80876370  0.38939795  0.97900070     0.13500
C944        C  0.81152899  0.35871934  0.98199221    -0.22700
C945        C  0.87715334  0.35023076  0.05952912    -0.05700
H946        H  0.86645443  0.40797890  0.04599565     0.15000
C947        C  0.78457675  0.40080361  0.94955419    -0.15900
H948        H  0.79631683  0.34471665  0.96406226     0.09300
H949        H  0.90110831  0.26248986  0.95994719     0.07200
H950        H  0.87375091  0.25899202  0.91701156     0.08400
H951        H  0.88014512  0.22947624  0.95524931     0.07400
H952        H  0.77932799  0.32516421  0.04855536     0.02300
H953        H  0.80739066  0.32761937  0.09080926     0.02800
H954        H  0.78289975  0.29652288  0.08910571     0.06300
H955        H  0.89072175  0.36735377  0.07600425     0.05300
H956        H  0.89194396  0.33638198  0.03910867    -0.00500
H957        H  0.86688594  0.33639011  0.08551085     0.01000
H958        H  0.78762847  0.39198712  0.91567013     0.04600
H959        H  0.78378279  0.42493921  0.94688172     0.06600
H960        H  0.76296996  0.39317485  0.96226845     0.07400
C961        C  0.85753530  0.69431145  0.01129209    -0.22200
C962        C  0.83502463  0.67930084  0.98908289     0.09800
C963        C  0.81442823  0.69524318  0.96367543     0.10200
C964        C  0.81638637  0.72603301  0.96203936    -0.17100
C965        C  0.83848042  0.74109865  0.98516031    -0.27500
C966        C  0.85990655  0.72500930  0.00895867     0.18500
C967        C  0.83345778  0.64686318  0.99277375     0.12500
C968        C  0.79052261  0.67979052  0.93812272    -0.11900
H969        H  0.80016600  0.73845778  0.94360033     0.12800
C970        C  0.88606736  0.73928218  0.03095376    -0.22700
H971        H  0.87354039  0.68193271  0.03027223     0.08400
C972        C  0.85395174  0.62851615  0.97142645     0.04700
C973        C  0.85124159  0.59793270  0.97561298    -0.19900
C974        C  0.82814499  0.58503825  0.99977394    -0.12200
C975        C  0.80728884  0.60371314  0.02078654     0.13500
C976        C  0.81070430  0.63431783  0.01753362    -0.22700
C977        C  0.87821933  0.64115158  0.94331846    -0.05700
H978        H  0.86706175  0.58390228  0.95899893     0.15000
C979        C  0.78139380  0.59309755  0.04750881    -0.15900
H980        H  0.79514157  0.64867182  0.03410204     0.09300
H981        H  0.90661583  0.72931950  0.01795591     0.07200
H982        H  0.88503679  0.73551044  0.06712471     0.08400
H983        H  0.88755856  0.76325624  0.02480253     0.07400
H984        H  0.77572418  0.66781544  0.96103698     0.02300
H985        H  0.80050273  0.66392405  0.91463325     0.02800
H986        H  0.77690837  0.69553928  0.91892952     0.06300
H987        H  0.89168392  0.62361981  0.92772138     0.05300
H988        H  0.89308411  0.65489111  0.96379992    -0.00500
H989        H  0.86860301  0.65486775  0.91663566     0.01000
H990        H  0.78365092  0.60095023  0.08206758     0.04600
H991        H  0.77870932  0.56908683  0.04839196     0.06600
H992        H  0.76081428  0.60232560  0.03340910     0.07400
C993        C  0.81160280  0.48375604  0.79562645    -0.22200
C994        C  0.83235976  0.50225528  0.77578874     0.09800
C995        C  0.85151773  0.51906934  0.80228262     0.10200
C996        C  0.84975729  0.51666015  0.84840581    -0.17100
C997        C  0.82897966  0.49809846  0.86861846    -0.27500
C998        C  0.80967184  0.48138445  0.84172836     0.18500
C999        C  0.83402461  0.50300636  0.72706221     0.12500
C1000       C  0.87375261  0.53950754  0.78180180    -0.11900
H1001       H  0.86447879  0.52959529  0.86881620     0.12800
C1002       C  0.78817170  0.45975844  0.86104594    -0.22700
H1003       H  0.79718437  0.47077956  0.77481909     0.08400
C1004       C  0.85136159  0.48261371  0.70355053     0.04700
C1005       C  0.85148498  0.48345557  0.65728229    -0.19900
C1006       C  0.83438568  0.50397626  0.63407500    -0.12200
C1007       C  0.81773154  0.52505985  0.65781404     0.13500
C1008       C  0.81754942  0.52403431  0.70408079    -0.22700
C1009       C  0.86932836  0.45973018  0.72735340    -0.05700
H1010       H  0.86433276  0.46741547  0.63906179     0.15000
C1011       C  0.80074177  0.54948466  0.63577550    -0.15900
H1012       H  0.80456037  0.53989968  0.72246789     0.09300
H1013       H  0.77587925  0.44765922  0.83504832     0.07200
H1014       H  0.77178442  0.47127478  0.88192040     0.08400
H1015       H  0.80047678  0.44338744  0.88085267     0.07400
H1016       H  0.86227116  0.55637719  0.76165639     0.02300
H1017       H  0.88893761  0.52686240  0.76030635     0.02800
H1018       H  0.88708353  0.55103198  0.80722464     0.06300
H1019       H  0.88164041  0.44550106  0.70397788     0.05300
H1020       H  0.85464458  0.44545959  0.74733835    -0.00500
H1021       H  0.88547285  0.47062768  0.74947638     0.01000
H1022       H  0.77691851  0.54686061  0.64283539     0.04600
H1023       H  0.80388920  0.55026482  0.59959614     0.06600
H1024       H  0.80821504  0.57101862  0.64903670     0.07400
C1025       C  0.81222569  0.51525483  0.20604528    -0.22200
C1026       C  0.82814018  0.49313698  0.22753231     0.09800
C1027       C  0.84373563  0.47213825  0.20258187     0.10200
C1028       C  0.84325140  0.47387694  0.15630847    -0.17100
C1029       C  0.82736732  0.49607233  0.13458631    -0.27500
C1030       C  0.81195603  0.51726059  0.15988602     0.18500
C1031       C  0.82912120  0.49323229  0.27630091     0.12500
C1032       C  0.86096485  0.44805455  0.22485872    -0.11900
H1033       H  0.85508550  0.45771438  0.13698275     0.12800
C1034       C  0.79632208  0.54312962  0.13971004    -0.22700
H1035       H  0.80063897  0.53153925  0.22548218     0.08400
C1036       C  0.84924183  0.51118940  0.29935656     0.04700
C1037       C  0.84919402  0.51095516  0.34560624    -0.19900
C1038       C  0.82931260  0.49338492  0.36930873    -0.12200
C1039       C  0.80940408  0.47503337  0.34607309     0.13500
C1040       C  0.80954537  0.47528155  0.29972497    -0.22700
C1041       C  0.87078284  0.53050528  0.27508094    -0.05700
H1042       H  0.86450447  0.52493216  0.36340997     0.15000
C1043       C  0.78883513  0.45434901  0.36975836    -0.15900
H1044       H  0.79436618  0.46137467  0.28155348     0.09300
H1045       H  0.80494530  0.56385859  0.15422359     0.07200
H1046       H  0.77237275  0.54158065  0.14649189     0.08400
H1047       H  0.79979767  0.54451859  0.10378616     0.07400
H1048       H  0.84596166  0.43429945  0.24512813     0.02300
H1049       H  0.87808843  0.45783079  0.24652064     0.02800
H1050       H  0.87203362  0.43353583  0.20051833     0.06300
H1051       H  0.88514055  0.54296083  0.29815933     0.05300
H1052       H  0.85871357  0.54661728  0.25434310    -0.00500
H1053       H  0.88504400  0.51677096  0.25365328     0.01000
H1054       H  0.77271767  0.46697315  0.38963916     0.04600
H1055       H  0.80167810  0.43954492  0.39161744     0.06600
H1056       H  0.77621206  0.44041826  0.34629534     0.07400
C1057       C  0.30614094  0.80746970  0.47804558    -0.22200
C1058       C  0.32090120  0.83088962  0.49841127     0.09800
C1059       C  0.30468463  0.85371551  0.51838006     0.10200
C1060       C  0.27383277  0.85265557  0.51743544    -0.17100
C1061       C  0.25897953  0.82940778  0.49658520    -0.27500
C1062       C  0.27531275  0.80627186  0.47716380     0.18500
C1063       C  0.35341704  0.83117377  0.49803835     0.12500
C1064       C  0.31997657  0.87910137  0.54067634    -0.11900
H1065       H  0.26123554  0.87016033  0.53259915     0.12800
C1066       C  0.26117671  0.77950588  0.45670181    -0.22700
H1067       H  0.31877455  0.78988480  0.46315158     0.08400
C1068       C  0.36994752  0.81590862  0.53008244     0.04700
C1069       C  0.40078135  0.81693227  0.52826578    -0.19900
C1070       C  0.41530770  0.83279463  0.49500913    -0.12200
C1071       C  0.39864011  0.84731345  0.46206210     0.13500
C1072       C  0.36784803  0.84664243  0.46443628    -0.22700
C1073       C  0.35502744  0.79870742  0.56620364    -0.05700
H1074       H  0.41361318  0.80558110  0.55312364     0.15000
C1075       C  0.41233013  0.86254275  0.42286299    -0.15900
H1076       H  0.35496590  0.85783206  0.43946919     0.09300
H1077       H  0.26927446  0.75941684  0.47366096     0.07200
H1078       H  0.26722872  0.77822130  0.42125838     0.08400
H1079       H  0.23688768  0.77945318  0.45923184     0.07400
H1080       H  0.33389496  0.89099374  0.51641209     0.02300
H1081       H  0.33407438  0.87078300  0.56788568     0.02800
H1082       H  0.30402371  0.89500733  0.55482689     0.06300
H1083       H  0.37121340  0.78822893  0.58872913     0.05300
H1084       H  0.34120439  0.78108531  0.55152987    -0.00500
H1085       H  0.34089145  0.81358213  0.58604787     0.01000
H1086       H  0.40347334  0.85279458  0.39196840     0.04600
H1087       H  0.43655088  0.86031898  0.42143117     0.06600
H1088       H  0.40672743  0.88630891  0.42362319     0.07400
C1089       C  0.64000107  0.81538461  0.47083357    -0.22200
C1090       C  0.65417478  0.83802365  0.49389880     0.09800
C1091       C  0.63740326  0.86018751  0.51444769     0.10200
C1092       C  0.60660230  0.85885541  0.51229629    -0.17100
C1093       C  0.59216866  0.83573440  0.49028298    -0.27500
C1094       C  0.60917799  0.81387836  0.46873506     0.18500
C1095       C  0.68666832  0.83773709  0.49666143     0.12500
C1096       C  0.65201123  0.88492952  0.53928127    -0.11900
H1097       H  0.59373634  0.87564558  0.52870745     0.12800
C1098       C  0.59524796  0.78934630  0.44249463    -0.22700
H1099       H  0.65318725  0.79869948  0.45476048     0.08400
C1100       C  0.70149343  0.81939672  0.52690904     0.04700
C1101       C  0.73235698  0.81945457  0.52785323    -0.19900
C1102       C  0.74868526  0.83754866  0.49934658    -0.12200
C1103       C  0.73365374  0.85690534  0.47034516     0.13500
C1104       C  0.70282167  0.85624939  0.46879510    -0.22700
C1105       C  0.68470476  0.79987239  0.55823103    -0.05700
H1106       H  0.74380544  0.80489688  0.55037752     0.15000
C1107       C  0.74904786  0.87948277  0.44204651    -0.15900
H1108       H  0.69123169  0.87070256  0.44624753     0.09300
H1109       H  0.58269603  0.77453208  0.46468596     0.07200
H1110       H  0.61199724  0.77570763  0.42538547     0.08400
H1111       H  0.58037262  0.79867649  0.41698996     0.07400
H1112       H  0.66618835  0.89781215  0.51655150     0.02300
H1113       H  0.66571945  0.87582275  0.56637450     0.02800
H1114       H  0.63564531  0.90017302  0.55400211     0.06300
H1115       H  0.69967035  0.78725228  0.58017064     0.05300
H1116       H  0.67117459  0.78390062  0.53932644    -0.00500
H1117       H  0.67007785  0.81349867  0.57927345     0.01000
H1118       H  0.74559862  0.87416208  0.40665291     0.04600
H1119       H  0.77293818  0.88116330  0.44857849     0.06600
H1120       H  0.73964400  0.90157613  0.44882417     0.07400
C1121       C  0.30528895  0.85787978  0.01620965    -0.22200
C1122       C  0.32042476  0.83658984  0.99169087     0.09800
C1123       C  0.30455272  0.81609906  0.96610796     0.10200
C1124       C  0.27371127  0.81740519  0.96550021    -0.17100
C1125       C  0.25842947  0.83863277  0.99014945    -0.27500
C1126       C  0.27445267  0.85943739  0.01538619     0.18500
C1127       C  0.35298233  0.83677626  0.99215083     0.12500
C1128       C  0.32020207  0.79287746  0.93955644    -0.11900
H1129       H  0.26143101  0.80149247  0.94624832     0.12800
C1130       C  0.26007503  0.88433891  0.04020559    -0.22700
H1131       H  0.31767007  0.87378952  0.03532139     0.08400
C1132       C  0.36914124  0.85467578  0.96286586     0.04700
C1133       C  0.39999784  0.85402436  0.96416013    -0.19900
C1134       C  0.41499525  0.83590816  0.99418718    -0.12200
C1135       C  0.39868919  0.81866393  0.02458074     0.13500
C1136       C  0.36783751  0.81901503  0.02265288    -0.22700
C1137       C  0.35377189  0.87430922  0.93011481    -0.05700
H1138       H  0.41247770  0.86740419  0.94126473     0.15000
C1139       C  0.41278952  0.80071985  0.06076678    -0.15900
H1140       H  0.35525437  0.80573312  0.04557145     0.09300
H1141       H  0.26951054  0.90559259  0.02890542     0.07200
H1142       H  0.26441415  0.88184843  0.07607816     0.08400
H1143       H  0.23600917  0.88565547  0.03497935     0.07400
H1144       H  0.33339992  0.77869334  0.96187742     0.02300
H1145       H  0.33504712  0.80346531  0.91517550     0.02800
H1146       H  0.30449887  0.77862737  0.92130015     0.06300
H1147       H  0.36966923  0.88675859  0.90946875     0.05300
H1148       H  0.33975849  0.89041695  0.94788143    -0.00500
H1149       H  0.33976091  0.86084982  0.90787899     0.01000
H1150       H  0.40373791  0.80765912  0.09317911     0.04600
H1151       H  0.43693692  0.80347870  0.06278167     0.06600
H1152       H  0.40775659  0.77705328  0.05566099     0.07400
C1153       C  0.63954886  0.84845661  0.02607111    -0.22200
C1154       C  0.65363253  0.83163187  0.99362112     0.09800
C1155       C  0.63676563  0.81543654  0.96304678     0.10200
C1156       C  0.60598720  0.81664476  0.96533677    -0.17100
C1157       C  0.59173569  0.83369584  0.99750691    -0.27500
C1158       C  0.60873844  0.84948053  0.02878200     0.18500
C1159       C  0.68613634  0.83098714  0.99249276     0.12500
C1160       C  0.65127756  0.79702097  0.92792063    -0.11900
H1161       H  0.59295477  0.80452381  0.94152719     0.12800
C1162       C  0.59542590  0.86654151  0.06650334    -0.22700
H1163       H  0.65270511  0.86051505  0.04980799     0.08400
C1164       C  0.70229785  0.85186540  0.96807341     0.04700
C1165       C  0.73308400  0.84994671  0.96709514    -0.19900
C1166       C  0.74801727  0.82785834  0.99047581    -0.12200
C1167       C  0.73169747  0.80663089  0.01445219     0.13500
C1168       C  0.70091494  0.80868894  0.01543335    -0.22700
C1169       C  0.68702010  0.87624039  0.94339287    -0.05700
H1170       H  0.74562060  0.86613338  0.94871208     0.15000
C1171       C  0.74571852  0.78090661  0.03784684    -0.15900
H1172       H  0.68826969  0.79247531  0.03364579     0.09300
H1173       H  0.60111646  0.89019692  0.06312050     0.07200
H1174       H  0.60450622  0.85825681  0.09819424     0.08400
H1175       H  0.57121024  0.86443727  0.06859007     0.07400
H1176       H  0.66519116  0.77987895  0.94358757     0.02300
H1177       H  0.66526037  0.81116343  0.90664711     0.02800
H1178       H  0.63484595  0.78584778  0.90655335     0.06300
H1179       H  0.70293945  0.89071379  0.92599307     0.05300
H1180       H  0.67426759  0.88997895  0.96686488    -0.00500
H1181       H  0.67180583  0.86679042  0.91846392     0.01000
H1182       H  0.74134130  0.78250212  0.07381997     0.04600
H1183       H  0.76977859  0.77945231  0.03270282     0.06600
H1184       H  0.73603875  0.76008618  0.02524831     0.07400
C1185       C  0.52470327  0.81899659  0.69755073    -0.22200
C1186       C  0.50663463  0.83919762  0.71949315     0.09800
C1187       C  0.48906351  0.85881913  0.69497102     0.10200
C1188       C  0.48947409  0.85738447  0.64868672    -0.17100
C1189       C  0.50689720  0.83657077  0.62648094    -0.27500
C1190       C  0.52509208  0.81740322  0.65126989     0.18500
C1191       C  0.50604683  0.83881600  0.76830303     0.12500
C1192       C  0.46976407  0.88107423  0.71769261    -0.11900
H1193       H  0.47572588  0.87220189  0.62978974     0.12800
C1194       C  0.54563782  0.79585998  0.62936081    -0.22700
H1195       H  0.53832083  0.80427935  0.71680374     0.08400
C1196       C  0.48690038  0.81992326  0.79146070     0.04700
C1197       C  0.48757773  0.81963235  0.83774232    -0.19900
C1198       C  0.50707763  0.83772130  0.86138088    -0.12200
C1199       C  0.52688611  0.85611123  0.83794499     0.13500
C1200       C  0.52574008  0.85672110  0.79163582    -0.22700
C1201       C  0.46575756  0.80010169  0.76726940    -0.05700
H1202       H  0.47256593  0.80545463  0.85559655     0.15000
C1203       C  0.55048265  0.87422530  0.86009789    -0.15900
H1204       H  0.54079547  0.87072962  0.77352290     0.09300
H1205       H  0.53286668  0.77896651  0.61112913     0.07200
H1206       H  0.55957999  0.78416592  0.65383182     0.08400
H1207       H  0.56044620  0.80770081  0.60621950     0.07400
H1208       H  0.48351613  0.89596029  0.73818780     0.02300
H1209       H  0.45362763  0.86965790  0.73921464     0.02800
H1210       H  0.45737163  0.89471946  0.69362429     0.06300
H1211       H  0.45227722  0.78676228  0.79038902     0.05300
H1212       H  0.47815129  0.78478994  0.74562883    -0.00500
H1213       H  0.45062221  0.81350941  0.74672407     0.01000
H1214       H  0.57224702  0.86840703  0.84593241     0.04600
H1215       H  0.55206897  0.87045806  0.89609827     0.06600
H1216       H  0.54629818  0.89795653  0.85409295     0.07400
C1217       C  0.47957464  0.84966815  0.19663201    -0.22200
C1218       C  0.49914230  0.83134366  0.21939387     0.09800
C1219       C  0.51803861  0.81253536  0.19566020     0.10200
C1220       C  0.51776067  0.81332244  0.14935346    -0.17100
C1221       C  0.49876776  0.83227865  0.12638578    -0.27500
C1222       C  0.47871755  0.85001269  0.15035195     0.18500
C1223       C  0.49946954  0.83226384  0.26817883     0.12500
C1224       C  0.53841432  0.79164177  0.21922862    -0.11900
H1225       H  0.53277137  0.79945460  0.13100784     0.12800
C1226       C  0.45530834  0.86857024  0.12863466    -0.22700
H1227       H  0.46463635  0.86354188  0.21515416     0.08400
C1228       C  0.51900031  0.85085607  0.29121766     0.04700
C1229       C  0.51877225  0.85081709  0.33750643    -0.19900
C1230       C  0.49924691  0.83283029  0.36121016    -0.12200
C1231       C  0.47877115  0.81510781  0.33794623     0.13500
C1232       C  0.47950998  0.81473766  0.29163306    -0.22700
C1233       C  0.53990888  0.87085948  0.26692322    -0.05700
H1234       H  0.53413616  0.86467100  0.35532097     0.15000
C1235       C  0.45499192  0.79742881  0.36040656    -0.15900
H1236       H  0.46408102  0.80104773  0.27362082     0.09300
H1237       H  0.45944622  0.89216879  0.13582294     0.07200
H1238       H  0.43342937  0.86241506  0.14209623     0.08400
H1239       H  0.45400933  0.86553784  0.09244365     0.07400
H1240       H  0.52536728  0.77628951  0.23996557     0.02300
H1241       H  0.55383831  0.80408354  0.24063692     0.02800
H1242       H  0.55162117  0.77838618  0.19568088     0.06300
H1243       H  0.55356451  0.88407412  0.28999965     0.05300
H1244       H  0.52726818  0.88627900  0.24575292    -0.00500
H1245       H  0.55491052  0.85770203  0.24587028     0.01000
H1246       H  0.43320335  0.80405296  0.34711101     0.04600
H1247       H  0.45409651  0.80080230  0.39655229     0.06600
H1248       H  0.45838812  0.77365853  0.35368657     0.07400
loop_ 
_geom_bond_atom_site_label_1 
_geom_bond_atom_site_label_2 
_geom_bond_distance 
_geom_bond_site_symmetry_2 
_ccdc_geom_bond_type 
O1           Ni9   1.915   1_554  S
O1           C11   1.281       .  A
O2           Ni9   1.917       .  S
O2           C12   1.281       .  A
O3           Ni9   1.918       .  S
O3           C13   1.281       .  A
O4           Ni9   1.918       .  S
O4           C14   1.281       .  A
O5          Ni10   1.914       .  S
O5           C14   1.280       .  A
O6          Ni10   1.915       .  S
O6           C13   1.281       .  A
O7          Ni10   1.917       .  S
O7           C12   1.282       .  A
O8          Ni10   1.917   1_554  S
O8           C11   1.281       .  A
Ni9         Ni10   2.390       .  S
C11        C1221   1.475       .  S
C12        C1198   1.478       .  S
C13        C1134   1.476       .  S
C14        C1157   1.475       .  S
O15         Ni23   1.915       .  S
O15          C25   1.281       .  A
O16         Ni23   1.917       .  S
O16          C26   1.281       .  A
O17         Ni23   1.918       .  S
O17          C27   1.282       .  A
O18         Ni23   1.916       .  S
O18          C28   1.281       .  A
O19         Ni24   1.914       .  S
O19          C28   1.280       .  A
O20         Ni24   1.914       .  S
O20          C27   1.280       .  A
O21         Ni24   1.916       .  S
O21          C26   1.281       .  A
O22         Ni24   1.917       .  S
O22          C25   1.281       .  A
Ni23        Ni24   2.389       .  S
C25        C1230   1.475       .  S
C26        C1189   1.480       .  S
C27        C1093   1.483       .  S
C28        C1070   1.472       .  S
O29         Ni37   1.920       .  S
O29          C39   1.280       .  A
O30         Ni37   1.920       .  S
O30          C40   1.281       .  A
O31         Ni37   1.921       .  S
O31          C41   1.282       .  A
O32         Ni37   1.921   1_556  S
O32          C42   1.281       .  A
O33         Ni38   1.918   1_556  S
O33          C42   1.281       .  A
O34         Ni38   1.917       .  S
O34          C41   1.281       .  A
O35         Ni38   1.914       .  S
O35          C40   1.281       .  A
O36         Ni38   1.914       .  S
O36          C39   1.282       .  A
Ni37        Ni38   2.386       .  S
C39         C974   1.485   1_554  S
C40         C942   1.483       .  S
C41        C1029   1.477       .  S
C42         C997   1.484       .  S
O43         Ni51   1.919       .  S
O43          C53   1.282       .  A
O44         Ni51   1.919       .  S
O44          C54   1.282       .  A
O45         Ni51   1.914       .  S
O45          C55   1.280       .  A
O46         Ni51   1.915       .  S
O46          C56   1.281       .  A
O47         Ni52   1.917       .  S
O47          C56   1.281       .  A
O48         Ni52   1.917       .  S
O48          C55   1.281       .  A
O49         Ni52   1.918       .  S
O49          C54   1.281       .  A
O50         Ni52   1.919       .  S
O50          C53   1.281       .  A
Ni51        Ni52   2.389       .  S
C53         C878   1.481       .  S
C54         C901   1.482       .  S
C55        C1038   1.477       .  S
C56        C1006   1.475       .  S
O57         Ni65   1.916       .  S
O57          C67   1.280       .  A
O58         Ni65   1.919   1_556  S
O58          C68   1.282       .  A
O59         Ni65   1.915       .  S
O59          C69   1.283       .  A
O60         Ni65   1.913       .  S
O60          C70   1.280       .  A
O61         Ni66   1.916       .  S
O61          C70   1.281       .  A
O62         Ni66   1.914       .  S
O62          C69   1.279       .  A
O63         Ni66   1.915   1_556  S
O63          C68   1.281       .  A
O64         Ni66   1.919       .  S
O64          C67   1.281       .  A
Ni65        Ni66   2.387       .  S
C67         C846   1.474       .  S
C68         C814   1.480       .  S
C69         C773   1.488       .  S
C70         C741   1.473       .  S
O71         Ni79   1.923       .  S
O71          C81   1.281       .  A
O72         Ni79   1.921       .  S
O72          C82   1.282       .  A
O73         Ni79   1.924       .  S
O73          C83   1.282       .  A
O74         Ni79   1.920       .  S
O74          C84   1.282       .  A
O75         Ni80   1.915       .  S
O75          C84   1.281       .  A
O76         Ni80   1.910       .  S
O76          C83   1.280       .  A
O77         Ni80   1.914       .  S
O77          C82   1.280       .  A
O78         Ni80   1.913       .  S
O78          C81   1.281       .  A
Ni79        Ni80   2.387       .  S
C81         C677   1.488       .  S
C82         C709   1.477       .  S
C83         C837   1.483       .  S
C84         C805   1.479       .  S
O85         Ni93   1.918       .  S
O85          C95   1.281       .  A
O86         Ni93   1.916   1_556  S
O86          C96   1.281       .  A
O87         Ni93   1.919       .  S
O87          C97   1.281   1_554  A
O88         Ni93   1.920       .  S
O88          C98   1.282       .  A
O89         Ni94   1.915       .  S
O89          C98   1.281       .  A
O90         Ni94   1.916       .  S
O90          C97   1.281   1_554  A
O91         Ni94   1.916   1_556  S
O91          C96   1.281       .  A
O92         Ni94   1.918       .  S
O92          C95   1.281       .  A
Ni93        Ni94   2.389       .  S
C95         C645   1.477       .  S
C96         C613   1.476       .  S
C97         C590   1.480       .  S
C98         C549   1.480       .  S
O99        Ni107   1.914       .  S
O99         C109   1.280       .  A
O100       Ni107   1.916       .  S
O100        C110   1.280       .  A
O101       Ni107   1.917       .  S
O101        C111   1.281       .  A
O102       Ni107   1.923       .  S
O102        C112   1.282       .  A
O103       Ni108   1.915       .  S
O103        C112   1.281       .  A
O104       Ni108   1.916       .  S
O104        C111   1.281       .  A
O105       Ni108   1.920       .  S
O105        C110   1.283       .  A
O106       Ni108   1.919       .  S
O106        C109   1.282       .  A
Ni107      Ni108   2.387       .  S
C109        C485   1.477       .  S
C110        C517   1.486       .  S
C111        C654   1.478       .  S
C112        C622   1.483       .  S
O113       Ni121   1.915       .  S
O113        C123   1.280       .  A
O114       Ni121   1.918       .  S
O114        C124   1.281       .  A
O115       Ni121   1.919       .  S
O115        C125   1.281       .  A
O116       Ni121   1.920       .  S
O116        C126   1.282       .  A
O117       Ni122   1.913       .  S
O117        C126   1.281   1_554  A
O118       Ni122   1.910       .  S
O118        C125   1.280   1_554  A
O119       Ni122   1.915       .  S
O119        C124   1.281   1_554  A
O120       Ni122   1.917       .  S
O120        C123   1.281   1_554  A
Ni121      Ni122   2.390   1_556  S
C123       C1166   1.474       .  S
C124        C421   1.475       .  S
C125        C965   1.470       .  S
C126        C462   1.485       .  S
O127       Ni135   1.917       .  S
O127        C137   1.281       .  A
O128       Ni135   1.916       .  S
O128        C138   1.281       .  A
O129       Ni135   1.919       .  S
O129        C139   1.282       .  A
O130       Ni135   1.919       .  S
O130        C140   1.282       .  A
O131       Ni136   1.916       .  S
O131        C140   1.281       .  A
O132       Ni136   1.914       .  S
O132        C139   1.281       .  A
O133       Ni136   1.914       .  S
O133        C138   1.281       .  A
O134       Ni136   1.916       .  S
O134        C137   1.281       .  A
Ni135      Ni136   2.389       .  S
C137        C910   1.476       .  S
C138        C389   1.476       .  S
C139       C1102   1.478       .  S
C140        C357   1.479       .  S
O141       Ni149   1.915       .  S
O141        C151   1.280   1_556  A
O142       Ni149   1.914       .  S
O142        C152   1.280   1_556  A
O143       Ni149   1.919       .  S
O143        C153   1.283   1_556  A
O144       Ni149   1.916       .  S
O144        C154   1.281   1_556  A
O145       Ni150   1.912       .  S
O145        C154   1.280       .  A
O146       Ni150   1.911       .  S
O146        C153   1.278       .  A
O147       Ni150   1.923       .  S
O147        C152   1.282       .  A
O148       Ni150   1.919       .  S
O148        C151   1.282       .  A
Ni149      Ni150   2.388   1_556  S
C151        C933   1.476       .  S
C152        C453   1.478       .  S
C153        C782   1.487       .  S
C154        C325   1.469       .  S
O155       Ni163   1.920       .  S
O155        C165   1.282       .  A
O156       Ni163   1.919       .  S
O156        C166   1.282       .  A
O157       Ni163   1.915       .  S
O157        C167   1.281       .  A
O158       Ni163   1.910       .  S
O158        C168   1.280       .  A
O159       Ni164   1.921       .  S
O159        C168   1.282       .  A
O160       Ni164   1.920       .  S
O160        C167   1.282       .  A
O161       Ni164   1.918       .  S
O161        C166   1.281       .  A
O162       Ni164   1.916       .  S
O162        C165   1.280       .  A
Ni163      Ni164   2.390       .  S
C165        C718   1.473       .  S
C166        C302   1.480       .  S
C167        C869   1.477       .  S
C168        C398   1.476       .  S
O169       Ni177   1.922       .  S
O169        C179   1.283       .  A
O170       Ni177   1.921       .  S
O170        C180   1.281       .  A
O171       Ni177   1.916       .  S
O171        C181   1.281       .  A
O172       Ni177   1.915       .  S
O172        C182   1.281       .  A
O173       Ni178   1.921       .  S
O173        C182   1.281   1_554  A
O174       Ni178   1.920       .  S
O174        C181   1.282   1_554  A
O175       Ni178   1.911       .  S
O175        C180   1.281   1_554  A
O176       Ni178   1.910       .  S
O176        C179   1.280   1_554  A
Ni177      Ni178   2.387   1_556  S
C179        C750   1.479       .  S
C180        C334   1.491       .  S
C181        C581   1.477       .  S
C182        C261   1.474       .  S
O183       Ni191   1.916       .  S
O183        C193   1.281       .  A
O184       Ni191   1.920       .  S
O184        C194   1.282       .  A
O185       Ni191   1.912       .  S
O185        C195   1.280       .  A
O186       Ni191   1.912       .  S
O186        C196   1.280       .  A
O187       Ni192   1.917       .  S
O187        C196   1.281       .  A
O188       Ni192   1.917       .  S
O188        C195   1.281       .  A
O189       Ni192   1.916       .  S
O189        C194   1.281       .  A
O190       Ni192   1.918       .  S
O190        C193   1.282       .  A
Ni191      Ni192   2.390       .  S
C193        C686   1.481       .  S
C194        C293   1.479       .  S
C195        C526   1.474       .  S
C196        C238   1.469       .  S
O197       Ni205   1.917       .  S
O197        C207   1.281       .  A
O198       Ni205   1.915       .  S
O198        C208   1.280       .  A
O199       Ni205   1.917       .  S
O199        C209   1.281       .  A
O200       Ni205   1.917       .  S
O200        C210   1.281       .  A
O201       Ni206   1.920       .  S
O201        C210   1.282   1_554  A
O202       Ni206   1.918       .  S
O202        C209   1.281   1_554  A
O203       Ni206   1.917       .  S
O203        C208   1.282   1_554  A
O204       Ni206   1.915       .  S
O204        C207   1.281   1_554  A
Ni205      Ni206   2.388   1_556  S
C207        C558   1.476       .  S
C208        C270   1.484       .  S
C209       C1125   1.476       .  S
C210        C430   1.482       .  S
O211       Ni219   1.914       .  S
O211        C221   1.280       .  A
O212       Ni219   1.916       .  S
O212        C222   1.281       .  A
O213       Ni219   1.918       .  S
O213        C223   1.282       .  A
O214       Ni219   1.917       .  S
O214        C224   1.283       .  A
O215       Ni220   1.914       .  S
O215        C224   1.280       .  A
O216       Ni220   1.912       .  S
O216        C223   1.280       .  A
O217       Ni220   1.919       .  S
O217        C222   1.282       .  A
O218       Ni220   1.919       .  S
O218        C221   1.281       .  A
Ni219      Ni220   2.387       .  S
C221       C1061   1.472       .  S
C222        C366   1.480       .  S
C223        C494   1.474       .  S
C224        C229   1.493       .  S
C225        C226   1.399       .  A
C225        C230   1.404       .  A
C225        H235   1.082       .  S
C226        C231   1.480   1_565  S
C226        C227   1.407       .  A
C227        C228   1.403       .  A
C227        C232   1.507       .  S
C228        C229   1.410       .  A
C228        H233   1.082       .  S
C229        C230   1.424       .  A
C230        C234   1.509       .  S
C231        C236   1.412       .  A
C231        C240   1.402       .  A
C232        H248   1.110       .  S
C232        H249   1.110       .  S
C232        H250   1.111       .  S
C234        H245   1.111       .  S
C234        H246   1.110       .  S
C234        H247   1.110       .  S
C236        C237   1.401       .  A
C236        C241   1.507       .  S
C237        C238   1.401       .  A
C237        H242   1.086       .  S
C238        C239   1.414       .  A
C239        C240   1.403       .  A
C239        C243   1.508       .  S
C240        H244   1.086       .  S
C241        H251   1.111       .  S
C241        H252   1.109       .  S
C241        H253   1.110       .  S
C243        H254   1.111       .  S
C243        H255   1.107       .  S
C243        H256   1.110       .  S
C257        C258   1.399       .  A
C257        C262   1.401       .  A
C257        H267   1.085       .  S
C258        C263   1.478   1_545  S
C258        C259   1.411   1_556  A
C259        C260   1.404       .  A
C259        C264   1.506       .  S
C260        C261   1.403   1_554  A
C260        H265   1.083       .  S
C261        C262   1.416       .  A
C262        C266   1.506       .  S
C263        C268   1.409   1_556  A
C263        C272   1.399       .  A
C264        H280   1.110       .  S
C264        H281   1.110       .  S
C264        H282   1.111       .  S
C266        H277   1.111       .  S
C266        H278   1.110       .  S
C266        H279   1.105       .  S
C268        C269   1.403       .  A
C268        C273   1.507       .  S
C269        C270   1.407   1_554  A
C269        H274   1.083       .  S
C270        C271   1.419       .  A
C271        C272   1.404       .  A
C271        C275   1.508       .  S
C272        H276   1.083       .  S
C273        H283   1.111       .  S
C273        H284   1.110       .  S
C273        H285   1.110       .  S
C275        H286   1.110       .  S
C275        H287   1.111       .  S
C275        H288   1.111       .  S
C289        C290   1.401       .  A
C289        C294   1.405       .  A
C289        H299   1.083       .  S
C290        C295   1.481   1_455  S
C290        C291   1.410       .  A
C291        C292   1.404       .  A
C291        C296   1.507       .  S
C292        C293   1.405       .  A
C292        H297   1.083       .  S
C293        C294   1.418       .  A
C294        C298   1.509       .  S
C295        C300   1.410       .  A
C295        C304   1.400       .  A
C296        H312   1.110   1_455  S
C296        H313   1.109   1_455  S
C296        H314   1.111       .  S
C298        H309   1.110       .  S
C298        H310   1.111       .  S
C298        H311   1.106       .  S
C300        C301   1.405       .  A
C300        C305   1.506       .  S
C301        C302   1.406       .  A
C301        H306   1.083       .  S
C302        C303   1.419       .  A
C303        C304   1.403       .  A
C303        C307   1.508       .  S
C304        H308   1.084       .  S
C305        H315   1.111       .  S
C305        H316   1.110       .  S
C305        H317   1.109       .  S
C307        H318   1.111       .  S
C307        H319   1.104       .  S
C307        H320   1.110       .  S
C321        C322   1.402       .  A
C321        C326   1.402       .  A
C321        H331   1.084       .  S
C322        C327   1.478   1_655  S
C322        C323   1.410   1_554  A
C323        C324   1.400       .  A
C323        C328   1.507       .  S
C324        C325   1.402   1_556  A
C324        H329   1.083       .  S
C325        C326   1.415       .  A
C326        C330   1.508       .  S
C327        C332   1.407       .  A
C327        C336   1.399   1_554  A
C328        H344   1.109       .  S
C328        H345   1.110       .  S
C328        H346   1.111       .  S
C330        H341   1.110       .  S
C330        H342   1.111       .  S
C330        H343   1.107       .  S
C332        C333   1.402       .  A
C332        C337   1.507       .  S
C333        C334   1.411   1_554  A
C333        H338   1.083       .  S
C334        C335   1.422       .  A
C335        C336   1.403       .  A
C335        C339   1.508       .  S
C336        H340   1.084       .  S
C337        H347   1.111       .  S
C337        H348   1.110       .  S
C337        H349   1.110       .  S
C339        H350   1.107       .  S
C339        H351   1.110       .  S
C339        H352   1.111       .  S
C353        C354   1.400       .  A
C353        C358   1.404       .  A
C353        H363   1.086       .  S
C354        C359   1.481   1_655  S
C354        C355   1.410       .  A
C355        C356   1.403       .  A
C355        C360   1.506       .  S
C356        C357   1.405       .  A
C356        H361   1.086       .  S
C357        C358   1.419       .  A
C358        C362   1.509       .  S
C359        C364   1.409       .  A
C359        C368   1.401       .  A
C360        H376   1.110   1_655  S
C360        H377   1.110   1_655  S
C360        H378   1.111       .  S
C362        H373   1.110       .  S
C362        H374   1.111       .  S
C362        H375   1.105       .  S
C364        C365   1.404       .  A
C364        C369   1.506       .  S
C365        C366   1.406       .  A
C365        H370   1.083       .  S
C366        C367   1.418       .  A
C367        C368   1.404       .  A
C367        C371   1.509       .  S
C368        H372   1.084       .  S
C369        H379   1.111       .  S
C369        H380   1.110       .  S
C369        H381   1.110       .  S
C371        H382   1.111       .  S
C371        H383   1.106       .  S
C371        H384   1.110       .  S
C385        C386   1.400       .  A
C385        C390   1.403       .  A
C385        H395   1.083       .  S
C386        C391   1.477   1_565  S
C386        C387   1.409       .  A
C387        C388   1.402       .  A
C387        C392   1.507       .  S
C388        C389   1.406       .  A
C388        H393   1.083       .  S
C389        C390   1.417       .  A
C390        C394   1.508       .  S
C391        C396   1.409       .  A
C391        C400   1.401       .  A
C392        H408   1.110       .  S
C392        H409   1.110       .  S
C392        H410   1.111       .  S
C394        H405   1.111       .  S
C394        H406   1.110       .  S
C394        H407   1.106       .  S
C396        C397   1.400       .  A
C396        C401   1.507       .  S
C397        C398   1.404       .  A
C397        H402   1.083       .  S
C398        C399   1.415       .  A
C399        C400   1.405       .  A
C399        C403   1.507       .  S
C400        H404   1.085       .  S
C401        H411   1.111       .  S
C401        H412   1.110       .  S
C401        H413   1.110       .  S
C403        H414   1.109       .  S
C403        H415   1.110       .  S
C403        H416   1.111       .  S
C417        C418   1.401       .  A
C417        C422   1.404       .  A
C417        H427   1.084       .  S
C418        C423   1.481   1_655  S
C418        C419   1.410   1_556  A
C419        C420   1.403       .  A
C419        C424   1.506       .  S
C420        C421   1.404   1_554  A
C420        H425   1.083       .  S
C421        C422   1.418       .  A
C422        C426   1.509       .  S
C423        C428   1.410   1_556  A
C423        C432   1.400       .  A
C424        H440   1.110   1_655  S
C424        H441   1.110   1_655  S
C424        H442   1.111       .  S
C426        H437   1.111       .  S
C426        H438   1.110       .  S
C426        H439   1.106       .  S
C428        C429   1.405       .  A
C428        C433   1.506       .  S
C429        C430   1.405   1_554  A
C429        H434   1.083       .  S
C430        C431   1.417       .  A
C431        C432   1.405       .  A
C431        C435   1.508       .  S
C432        H436   1.082       .  S
C433        H443   1.111       .  S
C433        H444   1.110       .  S
C433        H445   1.110       .  S
C435        H446   1.111       .  S
C435        H447   1.109       .  S
C435        H448   1.111       .  S
C449        C450   1.401       .  A
C449        C454   1.404       .  A
C449        H459   1.083       .  S
C450        C455   1.480   1_545  S
C450        C451   1.409   1_554  A
C451        C452   1.403       .  A
C451        C456   1.506       .  S
C452        C453   1.405   1_556  A
C452        H457   1.083       .  S
C453        C454   1.417       .  A
C454        C458   1.506       .  S
C455        C460   1.408       .  A
C455        C464   1.401   1_554  A
C456        H472   1.110       .  S
C456        H473   1.110       .  S
C456        H474   1.111       .  S
C458        H469   1.110       .  S
C458        H470   1.111       .  S
C458        H471   1.103       .  S
C460        C461   1.403       .  A
C460        C465   1.506       .  S
C461        C462   1.407   1_554  A
C461        H466   1.083       .  S
C462        C463   1.418       .  A
C463        C464   1.405       .  A
C463        C467   1.508       .  S
C464        H468   1.082       .  S
C465        H475   1.111       .  S
C465        H476   1.110       .  S
C465        H477   1.110       .  S
C467        H478   1.111       .  S
C467        H479   1.111       .  S
C467        H480   1.109       .  S
C481        C482   1.400       .  A
C481        C486   1.403       .  A
C481        H491   1.083       .  S
C482        C487   1.478       .  S
C482        C483   1.409       .  A
C483        C484   1.404       .  A
C483        C488   1.506       .  S
C484        C485   1.406       .  A
C484        H489   1.083       .  S
C485        C486   1.418       .  A
C486        C490   1.508       .  S
C487        C492   1.410       .  A
C487        C496   1.400       .  A
C488        H504   1.110       .  S
C488        H505   1.110       .  S
C488        H506   1.111       .  S
C490        H501   1.110       .  S
C490        H502   1.111       .  S
C490        H503   1.105       .  S
C492        C493   1.402       .  A
C492        C497   1.506       .  S
C493        C494   1.404       .  A
C493        H498   1.085       .  S
C494        C495   1.417       .  A
C495        C496   1.402       .  A
C495        C499   1.509       .  S
C496        H500   1.085       .  S
C497        H507   1.111       .  S
C497        H508   1.110       .  S
C497        H509   1.110       .  S
C499        H510   1.110       .  S
C499        H511   1.106       .  S
C499        H512   1.111       .  S
C513        C514   1.398       .  A
C513        C518   1.402       .  A
C513        H523   1.085       .  S
C514        C519   1.480       .  S
C514        C515   1.409       .  A
C515        C516   1.403       .  A
C515        C520   1.507       .  S
C516        C517   1.407       .  A
C516        H521   1.085       .  S
C517        C518   1.424       .  A
C518        C522   1.507       .  S
C519        C524   1.411       .  A
C519        C528   1.401       .  A
C520        H536   1.109       .  S
C520        H537   1.110       .  S
C520        H538   1.111       .  S
C522        H533   1.111       .  S
C522        H534   1.111       .  S
C522        H535   1.097       .  S
C524        C525   1.403       .  A
C524        C529   1.507       .  S
C525        C526   1.405       .  A
C525        H530   1.085       .  S
C526        C527   1.416       .  A
C527        C528   1.401       .  A
C527        C531   1.508       .  S
C528        H532   1.085       .  S
C529        H539   1.111       .  S
C529        H540   1.110       .  S
C529        H541   1.110       .  S
C531        H542   1.110       .  S
C531        H543   1.106       .  S
C531        H544   1.111       .  S
C545        C546   1.400   1_554  A
C545        C550   1.403       .  A
C545        H555   1.086       .  S
C546        C551   1.479       .  S
C546        C547   1.409       .  A
C547        C548   1.403       .  A
C547        C552   1.506       .  S
C548        C549   1.406   1_556  A
C548        H553   1.085       .  S
C549        C550   1.418       .  A
C550        C554   1.508       .  S
C551        C556   1.410       .  A
C551        C560   1.400   1_556  A
C552        H568   1.110       .  S
C552        H569   1.110       .  S
C552        H570   1.111       .  S
C554        H565   1.110       .  S
C554        H566   1.111       .  S
C554        H567   1.106       .  S
C556        C557   1.404       .  A
C556        C561   1.506       .  S
C557        C558   1.404       .  A
C557        H562   1.083       .  S
C558        C559   1.418   1_556  A
C559        C560   1.403       .  A
C559        C563   1.509       .  S
C560        H564   1.083       .  S
C561        H571   1.111       .  S
C561        H572   1.110       .  S
C561        H573   1.110       .  S
C563        H574   1.110       .  S
C563        H575   1.107       .  S
C563        H576   1.111       .  S
C577        C578   1.401       .  A
C577        C582   1.404       .  A
C577        H587   1.084       .  S
C578        C583   1.481       .  S
C578        C579   1.409   1_556  A
C579        C580   1.404       .  A
C579        C584   1.506       .  S
C580        C581   1.405   1_554  A
C580        H585   1.083       .  S
C581        C582   1.418       .  A
C582        C586   1.509       .  S
C583        C588   1.409   1_556  A
C583        C592   1.401       .  A
C584        H600   1.110       .  S
C584        H601   1.110       .  S
C584        H602   1.111       .  S
C586        H597   1.111       .  S
C586        H598   1.110       .  S
C586        H599   1.106       .  S
C588        C589   1.402       .  A
C588        C593   1.507       .  S
C589        C590   1.405   1_554  A
C589        H594   1.083       .  S
C590        C591   1.420       .  A
C591        C592   1.406       .  A
C591        C595   1.509       .  S
C592        H596   1.084       .  S
C593        H603   1.111       .  S
C593        H604   1.110       .  S
C593        H605   1.110       .  S
C595        H606   1.111       .  S
C595        H607   1.105       .  S
C595        H608   1.110       .  S
C609        C610   1.399       .  A
C609        C614   1.403       .  A
C609        H619   1.085       .  S
C610        C615   1.478       .  S
C610        C611   1.410       .  A
C611        C612   1.402       .  A
C611        C616   1.507       .  S
C612        C613   1.404       .  A
C612        H617   1.084       .  S
C613        C614   1.418       .  A
C614        C618   1.508       .  S
C615        C620   1.408       .  A
C615        C624   1.398       .  A
C616        H632   1.110       .  S
C616        H633   1.109       .  S
C616        H634   1.111       .  S
C618        H629   1.111       .  S
C618        H630   1.110       .  S
C618        H631   1.105       .  S
C620        C621   1.403       .  A
C620        C625   1.507       .  S
C621        C622   1.407       .  A
C621        H626   1.085       .  S
C622        C623   1.420       .  A
C623        C624   1.402       .  A
C623        C627   1.505       .  S
C624        H628   1.085       .  S
C625        H635   1.111       .  S
C625        H636   1.110       .  S
C625        H637   1.109       .  S
C627        H638   1.110       .  S
C627        H639   1.099       .  S
C627        H640   1.111       .  S
C641        C642   1.400       .  A
C641        C646   1.403       .  A
C641        H651   1.084       .  S
C642        C647   1.480       .  S
C642        C643   1.410       .  A
C643        C644   1.404       .  A
C643        C648   1.506       .  S
C644        C645   1.405       .  A
C644        H649   1.083       .  S
C645        C646   1.418       .  A
C646        C650   1.509       .  S
C647        C652   1.410       .  A
C647        C656   1.400       .  A
C648        H664   1.110       .  S
C648        H665   1.110       .  S
C648        H666   1.111       .  S
C650        H661   1.110       .  S
C650        H662   1.111       .  S
C650        H663   1.106       .  S
C652        C653   1.404       .  A
C652        C657   1.506       .  S
C653        C654   1.405       .  A
C653        H658   1.083       .  S
C654        C655   1.418       .  A
C655        C656   1.403       .  A
C655        C659   1.509       .  S
C656        H660   1.084       .  S
C657        H667   1.111       .  S
C657        H668   1.110       .  S
C657        H669   1.110       .  S
C659        H670   1.111       .  S
C659        H671   1.107       .  S
C659        H672   1.110       .  S
C673        C674   1.399       .  A
C673        C678   1.405       .  A
C673        H683   1.085       .  S
C674        C679   1.480       .  S
C674        C675   1.407       .  A
C675        C676   1.401       .  A
C675        C680   1.507       .  S
C676        C677   1.408       .  A
C676        H681   1.085       .  S
C677        C678   1.424       .  A
C678        C682   1.508       .  S
C679        C684   1.408       .  A
C679        C688   1.400       .  A
C680        H696   1.110       .  S
C680        H697   1.110       .  S
C680        H698   1.111       .  S
C682        H693   1.110       .  S
C682        H694   1.111       .  S
C682        H695   1.098       .  S
C684        C685   1.403       .  A
C684        C689   1.506       .  S
C685        C686   1.406       .  A
C685        H690   1.084       .  S
C686        C687   1.420       .  A
C687        C688   1.403       .  A
C687        C691   1.509       .  S
C688        H692   1.085       .  S
C689        H699   1.111       .  S
C689        H700   1.110       .  S
C689        H701   1.110       .  S
C691        H702   1.110       .  S
C691        H703   1.105       .  S
C691        H704   1.111       .  S
C705        C706   1.402       .  A
C705        C710   1.404       .  A
C705        H715   1.084       .  S
C706        C711   1.481       .  S
C706        C707   1.409       .  A
C707        C708   1.403       .  A
C707        C712   1.506       .  S
C708        C709   1.405       .  A
C708        H713   1.084       .  S
C709        C710   1.417       .  A
C710        C714   1.508       .  S
C711        C716   1.410       .  A
C711        C720   1.403       .  A
C712        H728   1.110       .  S
C712        H729   1.110       .  S
C712        H730   1.111       .  S
C714        H725   1.110       .  S
C714        H726   1.111       .  S
C714        H727   1.106       .  S
C716        C717   1.403       .  A
C716        C721   1.506       .  S
C717        C718   1.403       .  A
C717        H722   1.083       .  S
C718        C719   1.415       .  A
C719        C720   1.404       .  A
C719        C723   1.508       .  S
C720        H724   1.083       .  S
C721        H731   1.111       .  S
C721        H732   1.110       .  S
C721        H733   1.110       .  S
C723        H734   1.110       .  S
C723        H735   1.108       .  S
C723        H736   1.111       .  S
C737        C738   1.400       .  A
C737        C742   1.402       .  A
C737        H747   1.083       .  S
C738        C743   1.479       .  S
C738        C739   1.410   1_556  A
C739        C740   1.403       .  A
C739        C744   1.506       .  S
C740        C741   1.404       .  A
C740        H745   1.083       .  S
C741        C742   1.417   1_554  A
C742        C746   1.508       .  S
C743        C748   1.410       .  A
C743        C752   1.399   1_556  A
C744        H760   1.110       .  S
C744        H761   1.110       .  S
C744        H762   1.111       .  S
C746        H757   1.111       .  S
C746        H758   1.110       .  S
C746        H759   1.105       .  S
C748        C749   1.403       .  A
C748        C753   1.506       .  S
C749        C750   1.405       .  A
C749        H754   1.086       .  S
C750        C751   1.420   1_556  A
C751        C752   1.401       .  A
C751        C755   1.509       .  S
C752        H756   1.086       .  S
C753        H763   1.111       .  S
C753        H764   1.110       .  S
C753        H765   1.110       .  S
C755        H766   1.111       .  S
C755        H767   1.105       .  S
C755        H768   1.110       .  S
C769        C770   1.397       .  A
C769        C774   1.404       .  A
C769        H779   1.085       .  S
C770        C775   1.475       .  S
C770        C771   1.406       .  A
C771        C772   1.399       .  A
C771        C776   1.507   1_554  S
C772        C773   1.410       .  A
C772        H777   1.084   1_554  S
C773        C774   1.427       .  A
C774        C778   1.511       .  S
C775        C780   1.406   1_554  A
C775        C784   1.396       .  A
C776        H792   1.110   1_556  S
C776        H793   1.110       .  S
C776        H794   1.111       .  S
C778        H789   1.110       .  S
C778        H790   1.111       .  S
C778        H791   1.099       .  S
C780        C781   1.402       .  A
C780        C785   1.507       .  S
C781        C782   1.409   1_556  A
C781        H786   1.084       .  S
C782        C783   1.426       .  A
C783        C784   1.402       .  A
C783        C787   1.510       .  S
C784        H788   1.085       .  S
C785        H795   1.111       .  S
C785        H796   1.110       .  S
C785        H797   1.110       .  S
C787        H798   1.110       .  S
C787        H799   1.099       .  S
C787        H800   1.111       .  S
C801        C802   1.400       .  A
C801        C806   1.403       .  A
C801        H811   1.084       .  S
C802        C807   1.480       .  S
C802        C803   1.410       .  A
C803        C804   1.405       .  A
C803        C808   1.506       .  S
C804        C805   1.405       .  A
C804        H809   1.083       .  S
C805        C806   1.419       .  A
C806        C810   1.509       .  S
C807        C812   1.409       .  A
C807        C816   1.400       .  A
C808        H824   1.110       .  S
C808        H825   1.110       .  S
C808        H826   1.111       .  S
C810        H821   1.110       .  S
C810        H822   1.111       .  S
C810        H823   1.106       .  S
C812        C813   1.404       .  A
C812        C817   1.506       .  S
C813        C814   1.406       .  A
C813        H818   1.082       .  S
C814        C815   1.418       .  A
C815        C816   1.403       .  A
C815        C819   1.509       .  S
C816        H820   1.084       .  S
C817        H827   1.111       .  S
C817        H828   1.110       .  S
C817        H829   1.110       .  S
C819        H830   1.111       .  S
C819        H831   1.107       .  S
C819        H832   1.110       .  S
C833        C834   1.399       .  A
C833        C838   1.404       .  A
C833        H843   1.085       .  S
C834        C839   1.478       .  S
C834        C835   1.408       .  A
C835        C836   1.401       .  A
C835        C840   1.507       .  S
C836        C837   1.407       .  A
C836        H841   1.084       .  S
C837        C838   1.420       .  A
C838        C842   1.506       .  S
C839        C844   1.410       .  A
C839        C848   1.400       .  A
C840        H856   1.110       .  S
C840        H857   1.110       .  S
C840        H858   1.111       .  S
C842        H853   1.111       .  S
C842        H854   1.110       .  S
C842        H855   1.101       .  S
C844        C845   1.404       .  A
C844        C849   1.506       .  S
C845        C846   1.404       .  A
C845        H850   1.083       .  S
C846        C847   1.416       .  A
C847        C848   1.402       .  A
C847        C851   1.507       .  S
C848        H852   1.083       .  S
C849        H859   1.111       .  S
C849        H860   1.110       .  S
C849        H861   1.110       .  S
C851        H862   1.110       .  S
C851        H863   1.105       .  S
C851        H864   1.111       .  S
C865        C866   1.401       .  A
C865        C870   1.403       .  A
C865        H875   1.084       .  S
C866        C871   1.482       .  S
C866        C867   1.410       .  A
C867        C868   1.405       .  A
C867        C872   1.506       .  S
C868        C869   1.405       .  A
C868        H873   1.083       .  S
C869        C870   1.417       .  A
C870        C874   1.509       .  S
C871        C876   1.410       .  A
C871        C880   1.401       .  A
C872        H888   1.110       .  S
C872        H889   1.110       .  S
C872        H890   1.111       .  S
C874        H885   1.111       .  S
C874        H886   1.110       .  S
C874        H887   1.107       .  S
C876        C877   1.403       .  A
C876        C881   1.507       .  S
C877        C878   1.405       .  A
C877        H882   1.085       .  S
C878        C879   1.419       .  A
C879        C880   1.405       .  A
C879        C883   1.508       .  S
C880        H884   1.086       .  S
C881        H891   1.111       .  S
C881        H892   1.110       .  S
C881        H893   1.110       .  S
C883        H894   1.111       .  S
C883        H895   1.106       .  S
C883        H896   1.110       .  S
C897        C898   1.400       .  A
C897        C902   1.404       .  A
C897        H907   1.086       .  S
C898        C903   1.481       .  S
C898        C899   1.410       .  A
C899        C900   1.403       .  A
C899        C904   1.507       .  S
C900        C901   1.405       .  A
C900        H905   1.084       .  S
C901        C902   1.420       .  A
C902        C906   1.509       .  S
C903        C908   1.410       .  A
C903        C912   1.400       .  A
C904        H920   1.110       .  S
C904        H921   1.110       .  S
C904        H922   1.111       .  S
C906        H917   1.110       .  S
C906        H918   1.111       .  S
C906        H919   1.106       .  S
C908        C909   1.404       .  A
C908        C913   1.506       .  S
C909        C910   1.405       .  A
C909        H914   1.084       .  S
C910        C911   1.417       .  A
C911        C912   1.403       .  A
C911        C915   1.509       .  S
C912        H916   1.086       .  S
C913        H923   1.111       .  S
C913        H924   1.110       .  S
C913        H925   1.110       .  S
C915        H926   1.110       .  S
C915        H927   1.106       .  S
C915        H928   1.111       .  S
C929        C930   1.400   1_556  A
C929        C934   1.403       .  A
C929        H939   1.084       .  S
C930        C935   1.479       .  S
C930        C931   1.409       .  A
C931        C932   1.403       .  A
C931        C936   1.506       .  S
C932        C933   1.404       .  A
C932        H937   1.083       .  S
C933        C934   1.419   1_554  A
C934        C938   1.508       .  S
C935        C940   1.408       .  A
C935        C944   1.399   1_554  A
C936        H952   1.110       .  S
C936        H953   1.110       .  S
C936        H954   1.111       .  S
C938        H949   1.111       .  S
C938        H950   1.110       .  S
C938        H951   1.104       .  S
C940        C941   1.402       .  A
C940        C945   1.506       .  S
C941        C942   1.407       .  A
C941        H946   1.084       .  S
C942        C943   1.422   1_554  A
C943        C944   1.403       .  A
C943        C947   1.508       .  S
C944        H948   1.085       .  S
C945        H955   1.111       .  S
C945        H956   1.110       .  S
C945        H957   1.110       .  S
C947        H958   1.111       .  S
C947        H959   1.100       .  S
C947        H960   1.110       .  S
C961        C962   1.401   1_554  A
C961        C966   1.401       .  A
C961        H971   1.085       .  S
C962        C967   1.480       .  S
C962        C963   1.412       .  A
C963        C964   1.403       .  A
C963        C968   1.507       .  S
C964        C965   1.402       .  A
C964        H969   1.084       .  S
C965        C966   1.415   1_556  A
C966        C970   1.509       .  S
C967        C972   1.408       .  A
C967        C976   1.399   1_556  A
C968        H984   1.109       .  S
C968        H985   1.110       .  S
C968        H986   1.111       .  S
C970        H981   1.111       .  S
C970        H982   1.110       .  S
C970        H983   1.107       .  S
C972        C973   1.401       .  A
C972        C977   1.507       .  S
C973        C974   1.408       .  A
C973        H978   1.085       .  S
C974        C975   1.424   1_556  A
C975        C976   1.403       .  A
C975        C979   1.508       .  S
C976        H980   1.086       .  S
C977        H987   1.111       .  S
C977        H988   1.109       .  S
C977        H989   1.110       .  S
C979        H990   1.111       .  S
C979        H991   1.098       .  S
C979        H992   1.111       .  S
C993        C994   1.399       .  A
C993        C998   1.404       .  A
C993       H1003   1.083       .  S
C994        C999   1.478       .  S
C994        C995   1.409       .  A
C995        C996   1.404       .  A
C995       C1000   1.506       .  S
C996        C997   1.406       .  A
C996       H1001   1.084       .  S
C997        C998   1.417       .  A
C998       C1002   1.504       .  S
C999       C1004   1.410       .  A
C999       C1008   1.400       .  A
C1000      H1016   1.110       .  S
C1000      H1017   1.110       .  S
C1000      H1018   1.111       .  S
C1002      H1013   1.111       .  S
C1002      H1014   1.109       .  S
C1002      H1015   1.108       .  S
C1004      C1005   1.402       .  A
C1004      C1009   1.506       .  S
C1005      C1006   1.403       .  A
C1005      H1010   1.085       .  S
C1006      C1007   1.418       .  A
C1007      C1008   1.402       .  A
C1007      C1011   1.508       .  S
C1008      H1012   1.086       .  S
C1009      H1019   1.111       .  S
C1009      H1020   1.110       .  S
C1009      H1021   1.110       .  S
C1011      H1022   1.110       .  S
C1011      H1023   1.106       .  S
C1011      H1024   1.111       .  S
C1025      C1026   1.399       .  A
C1025      C1030   1.401       .  A
C1025      H1035   1.083       .  S
C1026      C1031   1.478       .  S
C1026      C1027   1.409       .  A
C1027      C1028   1.404       .  A
C1027      C1032   1.506       .  S
C1028      C1029   1.404       .  A
C1028      H1033   1.083       .  S
C1029      C1030   1.417       .  A
C1030      C1034   1.504       .  S
C1031      C1036   1.410       .  A
C1031      C1040   1.400       .  A
C1032      H1048   1.110       .  S
C1032      H1049   1.110       .  S
C1032      H1050   1.111       .  S
C1034      H1045   1.111       .  S
C1034      H1046   1.110       .  S
C1034      H1047   1.102       .  S
C1036      C1037   1.401       .  A
C1036      C1041   1.506       .  S
C1037      C1038   1.403       .  A
C1037      H1042   1.085       .  S
C1038      C1039   1.417       .  A
C1039      C1040   1.404       .  A
C1039      C1043   1.507       .  S
C1040      H1044   1.085       .  S
C1041      H1051   1.111       .  S
C1041      H1052   1.110       .  S
C1041      H1053   1.110       .  S
C1043      H1054   1.109       .  S
C1043      H1055   1.110       .  S
C1043      H1056   1.111       .  S
C1057      C1058   1.401       .  A
C1057      C1062   1.403       .  A
C1057      H1067   1.083       .  S
C1058      C1063   1.478       .  S
C1058      C1059   1.410       .  A
C1059      C1060   1.403       .  A
C1059      C1064   1.506       .  S
C1060      C1061   1.403       .  A
C1060      H1065   1.083       .  S
C1061      C1062   1.416       .  A
C1062      C1066   1.508       .  S
C1063      C1068   1.410       .  A
C1063      C1072   1.400       .  A
C1064      H1080   1.110       .  S
C1064      H1081   1.110       .  S
C1064      H1082   1.111       .  S
C1066      H1077   1.110       .  S
C1066      H1078   1.110       .  S
C1066      H1079   1.107       .  S
C1068      C1069   1.403       .  A
C1068      C1073   1.506       .  S
C1069      C1070   1.404       .  A
C1069      H1074   1.083       .  S
C1070      C1071   1.416       .  A
C1071      C1072   1.402       .  A
C1071      C1075   1.509       .  S
C1072      H1076   1.083       .  S
C1073      H1083   1.111       .  S
C1073      H1084   1.110       .  S
C1073      H1085   1.110       .  S
C1075      H1086   1.111       .  S
C1075      H1087   1.107       .  S
C1075      H1088   1.110       .  S
C1089      C1090   1.400       .  A
C1089      C1094   1.404       .  A
C1089      H1099   1.083       .  S
C1090      C1095   1.479       .  S
C1090      C1091   1.409       .  A
C1091      C1092   1.403       .  A
C1091      C1096   1.506       .  S
C1092      C1093   1.406       .  A
C1092      H1097   1.083       .  S
C1093      C1094   1.419       .  A
C1094      C1098   1.508       .  S
C1095      C1100   1.410       .  A
C1095      C1104   1.400       .  A
C1096      H1112   1.110       .  S
C1096      H1113   1.110       .  S
C1096      H1114   1.111       .  S
C1098      H1109   1.109       .  S
C1098      H1110   1.111       .  S
C1098      H1111   1.111       .  S
C1100      C1101   1.403       .  A
C1100      C1105   1.507       .  S
C1101      C1102   1.404       .  A
C1101      H1106   1.084       .  S
C1102      C1103   1.419       .  A
C1103      C1104   1.403       .  A
C1103      C1107   1.509       .  S
C1104      H1108   1.084       .  S
C1105      H1115   1.111       .  S
C1105      H1116   1.110       .  S
C1105      H1117   1.110       .  S
C1107      H1118   1.110       .  S
C1107      H1119   1.106       .  S
C1107      H1120   1.111       .  S
C1121      C1122   1.401   1_554  A
C1121      C1126   1.404       .  A
C1121      H1131   1.083       .  S
C1122      C1127   1.480       .  S
C1122      C1123   1.409       .  A
C1123      C1124   1.403       .  A
C1123      C1128   1.506       .  S
C1124      C1125   1.404       .  A
C1124      H1129   1.083       .  S
C1125      C1126   1.417   1_556  A
C1126      C1130   1.508       .  S
C1127      C1132   1.410       .  A
C1127      C1136   1.400   1_556  A
C1128      H1144   1.110       .  S
C1128      H1145   1.110       .  S
C1128      H1146   1.111       .  S
C1130      H1141   1.111       .  S
C1130      H1142   1.110       .  S
C1130      H1143   1.107       .  S
C1132      C1133   1.403       .  A
C1132      C1137   1.506       .  S
C1133      C1134   1.404       .  A
C1133      H1138   1.083       .  S
C1134      C1135   1.418   1_556  A
C1135      C1136   1.404       .  A
C1135      C1139   1.509       .  S
C1136      H1140   1.083       .  S
C1137      H1147   1.111       .  S
C1137      H1148   1.110       .  S
C1137      H1149   1.110       .  S
C1139      H1150   1.111       .  S
C1139      H1151   1.106       .  S
C1139      H1152   1.110       .  S
C1153      C1154   1.401   1_554  A
C1153      C1158   1.404       .  A
C1153      H1163   1.084       .  S
C1154      C1159   1.478       .  S
C1154      C1155   1.409       .  A
C1155      C1156   1.402       .  A
C1155      C1160   1.507       .  S
C1156      C1157   1.404       .  A
C1156      H1161   1.083       .  S
C1157      C1158   1.417   1_556  A
C1158      C1162   1.508       .  S
C1159      C1164   1.409       .  A
C1159      C1168   1.401   1_556  A
C1160      H1176   1.110       .  S
C1160      H1177   1.110       .  S
C1160      H1178   1.111       .  S
C1162      H1173   1.110       .  S
C1162      H1174   1.111       .  S
C1162      H1175   1.107       .  S
C1164      C1165   1.403       .  A
C1164      C1169   1.506       .  S
C1165      C1166   1.404       .  A
C1165      H1170   1.084       .  S
C1166      C1167   1.417   1_556  A
C1167      C1168   1.403       .  A
C1167      C1171   1.509       .  S
C1168      H1172   1.085       .  S
C1169      H1179   1.111       .  S
C1169      H1180   1.110       .  S
C1169      H1181   1.110       .  S
C1171      H1182   1.110       .  S
C1171      H1183   1.107       .  S
C1171      H1184   1.111       .  S
C1185      C1186   1.400       .  A
C1185      C1190   1.404       .  A
C1185      H1195   1.082       .  S
C1186      C1191   1.479       .  S
C1186      C1187   1.409       .  A
C1187      C1188   1.404       .  A
C1187      C1192   1.506       .  S
C1188      C1189   1.406       .  A
C1188      H1193   1.083       .  S
C1189      C1190   1.417       .  A
C1190      C1194   1.508       .  S
C1191      C1196   1.409       .  A
C1191      C1200   1.400       .  A
C1192      H1208   1.110       .  S
C1192      H1209   1.110       .  S
C1192      H1210   1.111       .  S
C1194      H1205   1.109       .  S
C1194      H1206   1.111       .  S
C1194      H1207   1.111       .  S
C1196      C1197   1.402       .  A
C1196      C1201   1.507       .  S
C1197      C1198   1.404       .  A
C1197      H1202   1.083       .  S
C1198      C1199   1.419       .  A
C1199      C1200   1.404       .  A
C1199      C1203   1.509       .  S
C1200      H1204   1.084       .  S
C1201      H1211   1.111       .  S
C1201      H1212   1.110       .  S
C1201      H1213   1.110       .  S
C1203      H1214   1.111       .  S
C1203      H1215   1.106       .  S
C1203      H1216   1.110       .  S
C1217      C1218   1.400       .  A
C1217      C1222   1.403       .  A
C1217      H1227   1.084       .  S
C1218      C1223   1.479       .  S
C1218      C1219   1.410       .  A
C1219      C1220   1.403       .  A
C1219      C1224   1.507       .  S
C1220      C1221   1.404       .  A
C1220      H1225   1.083       .  S
C1221      C1222   1.418       .  A
C1222      C1226   1.509       .  S
C1223      C1228   1.410       .  A
C1223      C1232   1.401       .  A
C1224      H1240   1.110       .  S
C1224      H1241   1.109       .  S
C1224      H1242   1.111       .  S
C1226      H1237   1.110       .  S
C1226      H1238   1.111       .  S
C1226      H1239   1.107       .  S
C1228      C1229   1.402       .  A
C1228      C1233   1.507       .  S
C1229      C1230   1.404       .  A
C1229      H1234   1.084       .  S
C1230      C1231   1.418       .  A
C1231      C1232   1.404       .  A
C1231      C1235   1.509       .  S
C1232      H1236   1.084       .  S
C1233      H1243   1.111       .  S
C1233      H1244   1.110       .  S
C1233      H1245   1.109       .  S
C1235      H1246   1.111       .  S
C1235      H1247   1.106       .  S
C1235      H1248   1.110       .  S
