geometry optimzed in LAMMPS
_audit_creation_date              2020-12-01 
_audit_creation_method            'lammps2cif' 
_symmetry_space_group_name_H-M    'P1' 
_symmetry_Int_Tables_number       1 
_symmetry_cell_setting            triclinic 
loop_ 
_symmetry_equiv_pos_as_xyz 
  x,y,z 
_cell_length_a                    39.95362461 
_cell_length_b                    40.00378045247413 
_cell_length_c                    39.973397131942264 
_cell_angle_alpha                 89.9839822315675 
_cell_angle_beta                  89.9434022905344 
_cell_angle_gamma                 89.88135179860242 
loop_ 
_atom_site_label 
_atom_site_type_symbol 
_atom_site_fract_x 
_atom_site_fract_y 
_atom_site_fract_z 
_atom_site_charge 
O1          O  0.96831204  0.28747814  0.53668755    -0.72800
O2          O  0.03840081  0.28593918  0.46388230    -0.73700
O3          O  0.96736376  0.28948459  0.46519532    -0.62400
O4          O  0.03918581  0.28429628  0.53561509    -0.70800
O5          O  0.03664862  0.22912374  0.53446499    -0.70300
O6          O  0.96474631  0.23410204  0.46420549    -0.61600
O7          O  0.03614132  0.23048196  0.46344382    -0.74100
O8          O  0.96607552  0.23217674  0.53504301    -0.72900
Cu9        Cu  0.00343938  0.28876156  0.50033315     1.04600
Cu10       Cu  0.00084269  0.22959739  0.49915059     1.04300
C11         C  0.95637776  0.25990771  0.54759486     0.93400
C12         C  0.04840871  0.25779873  0.45243182     0.92600
C13         C  0.95462124  0.26257519  0.45369011     0.84700
C14         C  0.04882249  0.25590018  0.54681342     0.91000
C15         C  0.22737204  0.27660052  0.24998942     0.02500
C16         C  0.22829797  0.25172387  0.27542264     0.02500
C17         C  0.25547430  0.22871661  0.27654085     0.02500
C18         C  0.28079594  0.23017466  0.25162275     0.02500
C19         C  0.28009343  0.25542645  0.22688513     0.02500
C20         C  0.25307373  0.27817162  0.22562708     0.02500
C21         C  0.77271027  0.25106435  0.72001531     0.02500
C22         C  0.77218661  0.27585301  0.74519389     0.02500
C23         C  0.74639948  0.27577564  0.76958769     0.02500
C24         C  0.72218134  0.24987754  0.76965590     0.02500
C25         C  0.72343842  0.22454933  0.74500055     0.02500
C26         C  0.74834782  0.22545142  0.71980966     0.02500
O27         O  0.53729680  0.96608334  0.27372971    -0.72800
O28         O  0.46283514  0.03390238  0.27561055    -0.73700
O29         O  0.46594670  0.96345260  0.27355722    -0.62400
O30         O  0.53406977  0.03692688  0.27641266    -0.70800
O31         O  0.53337341  0.03993234  0.22097719    -0.70300
O32         O  0.46745207  0.96370890  0.21803867    -0.61600
O33         O  0.46265751  0.03438537  0.22018203    -0.74100
O34         O  0.53833767  0.96879189  0.21836284    -0.72900
Cu35       Cu  0.50007410  0.00001018  0.27676311     1.04600
Cu36       Cu  0.50051767  0.00177189  0.21746184     1.04300
C37         C  0.54972245  0.95683587  0.24572316     0.93400
C38         C  0.45064302  0.04449829  0.24802903     0.92600
C39         C  0.45588482  0.95204557  0.24548834     0.84700
C40         C  0.54415127  0.05034436  0.24922421     0.91000
C41         C  0.72040598  0.77123067  0.24875924     0.02500
C42         C  0.74445063  0.77210538  0.27482411     0.02500
C43         C  0.77072048  0.74822108  0.27545860     0.02500
C44         C  0.77150772  0.72213827  0.25143072     0.02500
C45         C  0.74710190  0.72081114  0.22572005     0.02500
C46         C  0.72135857  0.74532220  0.22448948     0.02500
O47         O  0.03370872  0.77650315  0.46332207    -0.72800
O48         O  0.96337030  0.77538155  0.53490935    -0.73700
O49         O  0.03393236  0.77571561  0.53422208    -0.62400
O50         O  0.96244213  0.77644072  0.46389448    -0.70800
O51         O  0.96272757  0.72100833  0.46238769    -0.70300
O52         O  0.03389372  0.72027830  0.53421944    -0.61600
O53         O  0.96302932  0.72008124  0.53391175    -0.74100
O54         O  0.03373192  0.72098496  0.46231352    -0.72900
Cu55       Cu  0.99835899  0.77787857  0.49902565     1.04600
Cu56       Cu  0.99838866  0.71860220  0.49813246     1.04300
C57         C  0.04467117  0.74894464  0.45143827     0.93400
C58         C  0.95244948  0.74758568  0.54626093     0.92600
C59         C  0.04489525  0.74801662  0.54572248     0.84700
C60         C  0.95110799  0.74901461  0.45215148     0.91000
C61         C  0.27187477  0.77644526  0.74856796     0.02500
C62         C  0.24628975  0.77554967  0.72399477     0.02500
C63         C  0.22076548  0.75118988  0.72596762     0.02500
C64         C  0.22191645  0.72672688  0.75135967     0.02500
C65         C  0.24652667  0.72844581  0.77662519     0.02500
C66         C  0.27119633  0.75370535  0.77572508     0.02500
O67         O  0.46381651  0.03145351  0.77362642    -0.72800
O68         O  0.53523993  0.96140853  0.77306026    -0.73700
O69         O  0.53499078  0.03231646  0.77471200    -0.62400
O70         O  0.46484407  0.96078128  0.77149792    -0.70800
O71         O  0.46622260  0.96213218  0.71625561    -0.70300
O72         O  0.53567475  0.03425486  0.71945392    -0.61600
O73         O  0.53716021  0.96326228  0.71761146    -0.74100
O74         O  0.46442258  0.03306608  0.71834666    -0.72900
Cu75       Cu  0.49971659  0.99652010  0.77511043     1.04600
Cu76       Cu  0.50092155  0.99828871  0.71596901     1.04300
C77         C  0.45230651  0.04311260  0.74618369     0.93400
C78         C  0.54710387  0.95085754  0.74535853     0.92600
C79         C  0.54656729  0.04469567  0.74762907     0.84700
C80         C  0.45456292  0.94980853  0.74329178     0.91000
O81         O  0.22149093  0.46871979  0.96500285    -0.72800
O82         O  0.22599493  0.53851754  0.03752179    -0.73700
O83         O  0.22248169  0.53951650  0.96674476    -0.62400
O84         O  0.22415463  0.46798237  0.03634860    -0.70800
O85         O  0.27962843  0.46589221  0.03346014    -0.70300
O86         O  0.27789652  0.53937532  0.96427228    -0.61600
O87         O  0.28143453  0.53726181  0.03517603    -0.74100
O88         O  0.27679370  0.46845370  0.96229361    -0.72900
Cu89       Cu  0.22164486  0.50370519  0.00148721     1.04600
Cu90       Cu  0.28090654  0.50268010  0.99873470     1.04300
C91         C  0.24854979  0.45776773  0.95182527     0.93400
C92         C  0.25444194  0.54901537  0.04767180     0.92600
C93         C  0.24964574  0.55071830  0.95432554     0.84700
C94         C  0.25200305  0.45575091  0.04605913     0.91000
O95         O  0.77327791  0.46179095  0.03283005    -0.72800
O96         O  0.76892632  0.53132886  0.96051505    -0.73700
O97         O  0.77241474  0.53241886  0.03194187    -0.62400
O98         O  0.76947795  0.46098278  0.96172582    -0.70800
O99         O  0.71393023  0.46078586  0.96419607    -0.70300
O100        O  0.71727045  0.53128707  0.03598089    -0.61600
O101        O  0.71349116  0.53217226  0.96437403    -0.74100
O102        O  0.71776176  0.46019887  0.03490077    -0.72900
Cu103      Cu  0.77291363  0.49667306  0.99665736     1.04600
Cu104      Cu  0.71363763  0.49615954  0.99994277     1.04300
C105        C  0.74627743  0.44999867  0.04518969     0.93400
C106        C  0.74059846  0.54264223  0.95096285     0.92600
C107        C  0.74549937  0.54271858  0.04579149     0.84700
C108        C  0.74128651  0.44972676  0.95182995     0.91000
C109        C  0.78042651  0.75420304  0.73111373     0.02500
C110        C  0.77975364  0.72784304  0.75474259     0.02500
C111        C  0.75387967  0.72636440  0.77899448     0.02500
C112        C  0.72852270  0.75119024  0.77914557     0.02500
C113        C  0.72858728  0.77679453  0.75475135     0.02500
C114        C  0.75464417  0.77851027  0.73084462     0.02500
O115        O  0.72364813  0.96258893  0.53529755    -0.72800
O116        O  0.72525962  0.03588358  0.46609779    -0.73700
O117        O  0.72181368  0.96408707  0.46436400    -0.62400
O118        O  0.72659186  0.03329976  0.53713636    -0.70800
O119        O  0.78212322  0.03189869  0.53464318    -0.70300
O120        O  0.77714420  0.96125297  0.46344430    -0.61600
O121        O  0.78041806  0.03258964  0.46416867    -0.74100
O122        O  0.77891910  0.96104917  0.53397394    -0.72900
Cu123      Cu  0.72235913  0.99907667  0.50064536     1.04600
Cu124      Cu  0.78151750  0.99660473  0.49891984     1.04300
C125        C  0.75130597  0.95042058  0.54590730     0.93400
C126        C  0.75326660  0.04637392  0.45460132     0.92600
C127        C  0.74874754  0.95079688  0.45322884     0.84700
C128        C  0.75510704  0.04352947  0.54719491     0.91000
C129        C  0.77150427  0.27938529  0.25382039     0.02500
C130        C  0.77263641  0.25512744  0.27950790     0.02500
C131        C  0.74896260  0.22879090  0.28010924     0.02500
C132        C  0.72374714  0.22715231  0.25516580     0.02500
C133        C  0.72350407  0.25074719  0.22867784     0.02500
C134        C  0.74712474  0.27718392  0.22823533     0.02500
O135        O  0.03559000  0.53800809  0.28021457    -0.72800
O136        O  0.96647319  0.46415779  0.28478819    -0.73700
O137        O  0.03761623  0.46677772  0.28226501    -0.62400
O138        O  0.96450399  0.53496756  0.28395173    -0.70800
O139        O  0.96207086  0.53469499  0.22864412    -0.70300
O140        O  0.03552742  0.46495554  0.22699748    -0.61600
O141        O  0.96419186  0.46405112  0.22938972    -0.74100
O142        O  0.03323354  0.53627922  0.22497065    -0.72900
Cu143      Cu  0.00120010  0.50101161  0.28470510     1.04600
Cu144      Cu  0.99875849  0.49993579  0.22557864     1.04300
C145        C  0.04536028  0.54882581  0.25165819     0.93400
C146        C  0.95406718  0.45287017  0.25754133     0.92600
C147        C  0.04795186  0.45457670  0.25466030     0.84700
C148        C  0.95157240  0.54570823  0.25684982     0.91000
C149        C  0.27605279  0.77547791  0.25187182     0.02500
C150        C  0.24949036  0.77717647  0.27527166     0.02500
C151        C  0.22209005  0.75474197  0.27279990     0.02500
C152        C  0.22180857  0.72992562  0.24746255     0.02500
C153        C  0.24885345  0.72776588  0.22465892     0.02500
C154        C  0.27587409  0.75050199  0.22687842     0.02500
O155        O  0.28470089  0.03573061  0.53793089    -0.72800
O156        O  0.28599280  0.96636985  0.46502711    -0.83300
O157        O  0.28671028  0.03743234  0.46626960    -0.62400
O158        O  0.28414062  0.96447072  0.53585769    -0.70800
O159        O  0.22874546  0.96578728  0.53459341    -0.70300
O160        O  0.23142248  0.03766743  0.46496881    -0.61600
O161        O  0.23068372  0.96713848  0.46402978    -0.74100
O162        O  0.22918670  0.03705273  0.53562497    -0.72900
Cu163      Cu  0.28736650  0.00106424  0.50139037     1.04600
Cu164      Cu  0.22814960  0.00197614  0.49983381     1.04300
C165        C  0.25666769  0.04737902  0.54812066     0.93400
C166        C  0.25843990  0.95564778  0.45299442     0.92600
C167        C  0.25930815  0.04865390  0.45403037     0.84700
C168        C  0.25590803  0.95304447  0.54563365     0.91000
C169        C  0.27443146  0.22244663  0.75434021     0.02500
C170        C  0.25151441  0.22469621  0.72718947     0.02500
C171        C  0.22668013  0.25013179  0.72726439     0.02500
C172        C  0.22607079  0.27417560  0.75320529     0.02500
C173        C  0.25042267  0.27345167  0.77878422     0.02500
C174        C  0.27391107  0.24706513  0.77993555     0.02500
O175        O  0.96723125  0.53461407  0.71870083    -0.72800
O176        O  0.03771018  0.46280986  0.72047607    -0.73700
O177        O  0.96695089  0.46302400  0.71643859    -0.62400
O178        O  0.03824161  0.53363734  0.72297780    -0.70800
O179        O  0.03462089  0.53266860  0.77812241    -0.70300
O180        O  0.96473140  0.46127295  0.77173174    -0.61600
O181        O  0.03561862  0.46237069  0.77601477    -0.74100
O182        O  0.96387356  0.53269406  0.77389641    -0.72900
Cu183      Cu  0.00255681  0.49860733  0.71770203     1.04600
Cu184      Cu  0.99945998  0.49716870  0.77682423     1.04300
C185        C  0.95473324  0.54550681  0.74604015     0.93400
C186        C  0.04812939  0.45178704  0.74858396     0.92600
C187        C  0.95511169  0.45031452  0.74326659     0.84700
C188        C  0.04799129  0.54420871  0.75156558     0.91000
O189        O  0.53491557  0.20622258  0.96408591    -0.72800
O190        O  0.46735333  0.21436121  0.03948525    -0.73700
O191        O  0.46382669  0.20965928  0.96804592    -0.62400
O192        O  0.53786680  0.20968875  0.03538020    -0.70800
O193        O  0.54120238  0.26472816  0.03213711    -0.70300
O194        O  0.46519710  0.26511555  0.96603462    -0.61600
O195        O  0.47097575  0.26952284  0.03651619    -0.74100
O196        O  0.53604746  0.26143029  0.96139112    -0.72900
Cu197      Cu  0.50084358  0.20801164  0.00181147     1.04600
Cu198      Cu  0.50345649  0.26705137  0.99881827     1.04300
C199        C  0.54626276  0.23304542  0.95085762     0.93400
C200        C  0.45912790  0.24336564  0.05033899     0.92600
C201        C  0.45281141  0.23728516  0.95643945     0.84700
C202        C  0.55115879  0.23704869  0.04479960     0.91000
O203        O  0.53444013  0.77582186  0.03415981    -0.72800
O204        O  0.46251497  0.78065204  0.96445772    -0.73700
O205        O  0.46367757  0.77769645  0.03553245    -0.62400
O206        O  0.53342341  0.77806113  0.96278508    -0.70800
O207        O  0.53074798  0.72279310  0.96015370    -0.70300
O208        O  0.46370651  0.72242447  0.03456869    -0.61600
O209        O  0.45950916  0.72522936  0.96396522    -0.74100
O210        O  0.53455551  0.72040864  0.03105735    -0.72900
Cu211      Cu  0.49861967  0.77999865  0.99927117     1.04600
Cu212      Cu  0.49709535  0.72079337  0.99731956     1.04300
C213        C  0.54568448  0.74750454  0.04376654     0.93400
C214        C  0.44925617  0.75373156  0.95368705     0.92600
C215        C  0.45272166  0.74980573  0.04671141     0.84700
C216        C  0.54282211  0.75043228  0.94968387     0.91000
C217        C  0.29862948  0.24568559  0.80764266    -0.11800
C218        C  0.29315015  0.22594897  0.83629633     0.03700
C219        C  0.31779829  0.22391825  0.86105753    -0.12300
C220        C  0.34802757  0.24134505  0.85762973     0.18600
C221        C  0.35336120  0.26128433  0.82908533    -0.09400
C222        C  0.32849653  0.26376086  0.80466914    -0.02300
H223        H  0.31345287  0.20863893  0.88301210     0.05100
C224        C  0.37376079  0.23870243  0.88401010     0.20500
H225        H  0.33280100  0.27917526  0.78281164     0.10300
C226        C  0.40336190  0.22100551  0.87739649    -0.15700
C227        C  0.42915636  0.21988029  0.90098930     0.03300
C228        C  0.42565611  0.23698883  0.93160324    -0.11000
C229        C  0.39581902  0.25420840  0.93845889    -0.01000
C230        C  0.36972703  0.25474121  0.91511796    -0.06200
H231        H  0.40659216  0.20851247  0.85355302     0.06300
H232        H  0.39274363  0.26708488  0.96211259     0.09700
Br233      Br  0.39418055  0.28554986  0.82235286    -0.05900
Br234      Br  0.25226113  0.20192952  0.84297540    -0.02800
Br235      Br  0.46945048  0.19650384  0.88932914     0.00000
Br236      Br  0.32933640  0.27814547  0.92647078    -0.04400
C237        C  0.07491507  0.42666087  0.74937846    -0.11800
C238        C  0.10563336  0.43317744  0.76534231     0.03700
C239        C  0.13057712  0.40858619  0.76584534    -0.12300
C240        C  0.12518043  0.37744214  0.75071479     0.18600
C241        C  0.09451915  0.37101001  0.73468425    -0.09400
C242        C  0.06973459  0.39570062  0.73385717    -0.02300
H243        H  0.15423719  0.41373343  0.77800911     0.05100
C244        C  0.15167088  0.35179386  0.75188546     0.20500
H245        H  0.04619174  0.39058627  0.72144840     0.10300
C246        C  0.14818955  0.32468863  0.77382791    -0.15700
C247        C  0.17206106  0.29913209  0.77448058     0.03300
C248        C  0.20013869  0.30079893  0.75319903    -0.11000
C249        C  0.20350722  0.32786725  0.73118225    -0.01000
C250        C  0.17957020  0.35334617  0.73045705    -0.06200
H251        H  0.12650276  0.32315926  0.79004659     0.06300
H252        H  0.22472079  0.32903202  0.71435961     0.09700
Br253      Br  0.08571446  0.32901061  0.71330088    -0.05900
Br254      Br  0.11515772  0.47580487  0.78521525    -0.02800
Br255      Br  0.16421010  0.26165744  0.80338081     0.00000
Br256      Br  0.18533642  0.38913118  0.69907470    -0.04400
C257        C  0.25584383  0.07334989  0.57420004    -0.11800
C258        C  0.27018673  0.06803299  0.60594075     0.03700
C259        C  0.26868273  0.09328022  0.63015185    -0.12300
C260        C  0.25312565  0.12393827  0.62310924     0.18600
C261        C  0.23888560  0.12931779  0.59138201    -0.09400
C262        C  0.24002933  0.10394842  0.56729940    -0.02300
H263        H  0.27951331  0.08895596  0.65461756     0.05100
C264        C  0.25215354  0.15005645  0.64915886     0.20500
H265        H  0.22896218  0.10827670  0.54293936     0.10300
C266        C  0.27897760  0.17233562  0.65194157    -0.15700
C267        C  0.27914574  0.19712121  0.67663801     0.03300
C268        C  0.25222893  0.19949288  0.69954643    -0.11000
C269        C  0.22511002  0.17742449  0.69611338    -0.01000
C270        C  0.22492276  0.15286989  0.67125551    -0.06200
H271        H  0.29976659  0.17057058  0.63460264     0.06300
H272        H  0.20416704  0.17896979  0.71326240     0.09700
Br273      Br  0.21805590  0.17104640  0.57993672    -0.05900
Br274      Br  0.29032116  0.02611692  0.61793841    -0.02800
Br275      Br  0.31595763  0.22783282  0.67628056     0.00000
Br276      Br  0.18715986  0.12350435  0.66854013    -0.04400
C277        C  0.42743004  0.74945608  0.07400722    -0.11800
C278        C  0.40828113  0.72071886  0.08207586     0.03700
C279        C  0.38445282  0.72225588  0.10762982    -0.12300
C280        C  0.37914343  0.75173277  0.12570640     0.18600
C281        C  0.39873318  0.78004929  0.11858746    -0.09400
C282        C  0.42232721  0.77883126  0.09276025    -0.02300
H283        H  0.36957413  0.70031968  0.11321519     0.05100
C284        C  0.35300527  0.75208113  0.15184215     0.20500
H285        H  0.43705751  0.80095916  0.08766925     0.10300
C286        C  0.35615254  0.73063415  0.17944822    -0.15700
C287        C  0.33112020  0.72910604  0.20386664     0.03300
C288        C  0.30282851  0.75005365  0.20126459    -0.11000
C289        C  0.29980990  0.77146384  0.17369198    -0.01000
C290        C  0.32402838  0.77187198  0.14857015    -0.06200
H291        H  0.37797669  0.71467277  0.18171572     0.06300
H292        H  0.27812716  0.78755851  0.17141616     0.09700
Br293      Br  0.39512250  0.82049932  0.14421544    -0.05900
Br294      Br  0.41192543  0.67857876  0.05924410    -0.02800
Br295      Br  0.33667030  0.69749444  0.23946187     0.00000
Br296      Br  0.31498043  0.79775641  0.10917510    -0.04400
C297        C  0.25800737  0.92952745  0.42651021    -0.11800
C298        C  0.28703161  0.91910581  0.40883606     0.03700
C299        C  0.28458985  0.89402921  0.38455212    -0.12300
C300        C  0.25375193  0.87938026  0.37697598     0.18600
C301        C  0.22485653  0.88985247  0.39397317    -0.09400
C302        C  0.22714482  0.91449044  0.41856423    -0.02300
H303        H  0.30683020  0.88617864  0.37111990     0.05100
C304        C  0.25220295  0.85337930  0.35099130     0.20500
H305        H  0.20446841  0.92186331  0.43148415     0.10300
C306        C  0.26039713  0.82036353  0.35933920    -0.15700
C307        C  0.25942231  0.79512843  0.33517930     0.03300
C308        C  0.25030700  0.80297530  0.30200279    -0.11000
C309        C  0.24258596  0.83619184  0.29371666    -0.01000
C310        C  0.24314226  0.86127533  0.31796792    -0.06200
H311        H  0.26757569  0.81425342  0.38474776     0.06300
H312        H  0.23591136  0.84259238  0.26826616     0.09700
Br313      Br  0.18169244  0.87145469  0.38408483    -0.05900
Br314      Br  0.33061780  0.93834803  0.41499295    -0.02800
Br315      Br  0.27165480  0.75080938  0.34880981     0.00000
Br316      Br  0.23138925  0.90593914  0.30500487    -0.04400
C317        C  0.07037151  0.57639173  0.24959928    -0.11800
C318        C  0.09042524  0.58204664  0.22080853     0.03700
C319        C  0.11362458  0.60828192  0.22045626    -0.12300
C320        C  0.11757559  0.62919405  0.24823117     0.18600
C321        C  0.09729034  0.62423702  0.27655434    -0.09400
C322        C  0.07412906  0.59798893  0.27715317    -0.02300
H323        H  0.12924515  0.61197026  0.19860376     0.05100
C324        C  0.14416934  0.65492885  0.24781658     0.20500
H325        H  0.05882004  0.59464381  0.29927591     0.10300
C326        C  0.13869829  0.68539666  0.23135761    -0.15700
C327        C  0.16351862  0.71013058  0.23079256     0.03300
C328        C  0.19459849  0.70435107  0.24658996    -0.11000
C329        C  0.20003675  0.67363993  0.26266417    -0.01000
C330        C  0.17517496  0.64910927  0.26344001    -0.06200
H331        H  0.11494320  0.69001828  0.21913351     0.06300
H332        H  0.22369304  0.66888051  0.27500277     0.09700
Br333      Br  0.10036922  0.65295582  0.31485311    -0.05900
Br334      Br  0.08931621  0.55416158  0.18167240    -0.02800
Br335      Br  0.15342560  0.75102441  0.20812763     0.00000
Br336      Br  0.18466514  0.60789834  0.28601216    -0.04400
C337        C  0.69813259  0.24762484  0.20152585    -0.11800
C338        C  0.70708937  0.23720601  0.16902534     0.03700
C339        C  0.68258673  0.23469002  0.14421463    -0.12300
C340        C  0.64888716  0.24106841  0.15161359     0.18600
C341        C  0.63953673  0.24876621  0.18466478    -0.09400
C342        C  0.66414609  0.25257657  0.20913978    -0.02300
H343        H  0.68978680  0.22749411  0.11908490     0.05100
C344        C  0.62400500  0.23997947  0.12438954     0.20500
H345        H  0.65672389  0.25903086  0.23438608     0.10300
C346        C  0.61555059  0.20924713  0.11002783    -0.15700
C347        C  0.59252574  0.20742887  0.08370636     0.03300
C348        C  0.57731580  0.23708254  0.07132013    -0.11000
C349        C  0.58656851  0.26787812  0.08561673    -0.01000
C350        C  0.60968960  0.26948842  0.11174847    -0.06200
H351        H  0.62701871  0.18651639  0.11937057     0.06300
H352        H  0.57563370  0.29099595  0.07666268     0.09700
Br353      Br  0.59349241  0.25279073  0.19775491    -0.05900
Br354      Br  0.75169270  0.22328257  0.15799679    -0.02800
Br355      Br  0.58437994  0.16355991  0.06587302     0.00000
Br356      Br  0.62169269  0.31267674  0.12884830    -0.04400
C357        C  0.79691568  0.30654870  0.25334652    -0.11800
C358        C  0.79148120  0.33718780  0.26985758     0.03700
C359        C  0.81681462  0.36132383  0.27044030    -0.12300
C360        C  0.84753748  0.35539405  0.25449601     0.18600
C361        C  0.85269941  0.32509316  0.23744460    -0.09400
C362        C  0.82760085  0.30086695  0.23723576    -0.02300
H363        H  0.81263205  0.38470702  0.28346359     0.05100
C364        C  0.87409639  0.38092653  0.25591699     0.20500
H365        H  0.83200341  0.27750753  0.22432463     0.10300
C366        C  0.89893280  0.37857576  0.28056708    -0.15700
C367        C  0.92525243  0.40165472  0.28177965     0.03300
C368        C  0.92687819  0.42771059  0.25796282    -0.11000
C369        C  0.90184855  0.42980609  0.23329145    -0.01000
C370        C  0.87561224  0.40676902  0.23219003    -0.06200
H371        H  0.89810251  0.35835320  0.29859294     0.06300
H372        H  0.90256981  0.44960475  0.21480562     0.09700
Br373      Br  0.89350239  0.31597771  0.21383128    -0.05900
Br374      Br  0.75025602  0.34687389  0.29240112    -0.02800
Br375      Br  0.95927893  0.39466548  0.31488392     0.00000
Br376      Br  0.84270670  0.41102380  0.19750187    -0.04400
C377        C  0.75401776  0.07483041  0.43044362    -0.11800
C378        C  0.78422769  0.08949101  0.41870650     0.03700
C379        C  0.78306414  0.11589232  0.39575307    -0.12300
C380        C  0.75251174  0.12856271  0.38431733     0.18600
C381        C  0.72250362  0.11470945  0.39623142    -0.09400
C382        C  0.72341093  0.08818235  0.41902351    -0.02300
H383        H  0.80622968  0.12658258  0.38657400     0.05100
C384        C  0.75250815  0.15476554  0.35831731     0.20500
H385        H  0.69989141  0.07780548  0.42755895     0.10300
C386        C  0.76075379  0.14588748  0.32542705    -0.15700
C387        C  0.76030301  0.16965419  0.29980592     0.03300
C388        C  0.75075505  0.20289194  0.30684512    -0.11000
C389        C  0.74325258  0.21183369  0.34000431    -0.01000
C390        C  0.74450416  0.18820055  0.36573681    -0.06200
H391        H  0.76763467  0.12030391  0.31970261     0.06300
H392        H  0.73625313  0.23730983  0.34589323     0.09700
Br393      Br  0.67972341  0.13056836  0.38116380    -0.05900
Br394      Br  0.82826023  0.07568197  0.43239736    -0.02800
Br395      Br  0.77433435  0.15547950  0.25616306     0.00000
Br396      Br  0.73601079  0.20279698  0.41064811    -0.04400
C397        C  0.70090593  0.74982216  0.80404018    -0.11800
C398        C  0.70327694  0.76645849  0.83498314     0.03700
C399        C  0.67643354  0.76555447  0.85740764    -0.12300
C400        C  0.64703834  0.74828602  0.84943545     0.18600
C401        C  0.64447263  0.73188658  0.81842153    -0.09400
C402        C  0.67130832  0.73282320  0.79594290    -0.02300
H403        H  0.67843873  0.77841938  0.88116582     0.05100
C404        C  0.61939219  0.74788185  0.87391269     0.20500
H405        H  0.66907776  0.72032910  0.77203482     0.10300
C406        C  0.59719433  0.77500148  0.87526732    -0.15700
C407        C  0.57171148  0.77622991  0.89931857     0.03300
C408        C  0.56842471  0.75000290  0.92282478    -0.11000
C409        C  0.59040163  0.72254018  0.92081053    -0.01000
C410        C  0.61577685  0.72139856  0.89671409    -0.06200
H411        H  0.59973577  0.79530239  0.85749166     0.06300
H412        H  0.58831920  0.70213696  0.93851624     0.09700
Br413      Br  0.60470862  0.70836166  0.80572333    -0.05900
Br414      Br  0.74216333  0.79145946  0.84742767    -0.02800
Br415      Br  0.54132336  0.81344344  0.89739222     0.00000
Br416      Br  0.64552168  0.68365745  0.89626281    -0.04400
C417        C  0.80554490  0.70101006  0.75290224    -0.11800
C418        C  0.79896638  0.67030472  0.73697924     0.03700
C419        C  0.82387727  0.64568602  0.73553692    -0.12300
C420        C  0.85558648  0.65143022  0.74936653     0.18600
C421        C  0.86255058  0.68252277  0.76417555    -0.09400
C422        C  0.83760912  0.70700957  0.76580024    -0.02300
H423        H  0.81853621  0.62198988  0.72358633     0.05100
C424        C  0.88095029  0.62454496  0.74852207     0.20500
H425        H  0.84324753  0.73080682  0.77727879     0.10300
C426        C  0.90112734  0.62061848  0.72014386    -0.15700
C427        C  0.92556203  0.59546094  0.71869712     0.03300
C428        C  0.92950019  0.57298775  0.74589789    -0.11000
C429        C  0.90922323  0.57745177  0.77440059    -0.01000
C430        C  0.88538097  0.60304109  0.77593672    -0.06200
H431        H  0.89822671  0.63763551  0.69923866     0.06300
H432        H  0.91187955  0.56099097  0.79575536     0.09700
Br433      Br  0.90579563  0.69256595  0.78229872    -0.05900
Br434      Br  0.75694518  0.66148937  0.71561861    -0.02800
Br435      Br  0.95381723  0.59519736  0.67977217     0.00000
Br436      Br  0.85971464  0.60818133  0.81618948    -0.04400
C437        C  0.75294400  0.80365569  0.70337124    -0.11800
C438        C  0.76101475  0.83756667  0.70842611     0.03700
C439        C  0.75807186  0.86025465  0.68199205    -0.12300
C440        C  0.74781069  0.84970964  0.65014280     0.18600
C441        C  0.74048933  0.81571026  0.64486461    -0.09400
C442        C  0.74256483  0.79318300  0.67151600    -0.02300
H443        H  0.76451353  0.88622999  0.68609442     0.05100
C444        C  0.74810722  0.87420416  0.62242103     0.20500
H445        H  0.73648324  0.76718073  0.66724644     0.10300
C446        C  0.77875303  0.88841235  0.61327070    -0.15700
C447        C  0.78065787  0.91303682  0.58857458     0.03300
C448        C  0.75114102  0.92394371  0.57209661    -0.11000
C449        C  0.72039382  0.90939565  0.58136275    -0.01000
C450        C  0.71866044  0.88491644  0.60632836    -0.06200
H451        H  0.80145302  0.88049185  0.62583779     0.06300
H452        H  0.69738148  0.91726342  0.56939492     0.09700
Br453      Br  0.72983708  0.79833333  0.60144289    -0.05900
Br454      Br  0.77768779  0.85418245  0.75014729    -0.02800
Br455      Br  0.82454871  0.93093625  0.58040964     0.00000
Br456      Br  0.67535182  0.86807919  0.61841850    -0.04400
C457        C  0.74800391  0.42435603  0.07157395    -0.11800
C458        C  0.76653403  0.42957324  0.10110837     0.03700
C459        C  0.76704600  0.40495143  0.12597055    -0.12300
C460        C  0.74963134  0.37490214  0.12165144     0.18600
C461        C  0.73161853  0.36939354  0.09196406    -0.09400
C462        C  0.73057506  0.39423274  0.06733768    -0.02300
H463        H  0.78068038  0.40940372  0.14893172     0.05100
C464        C  0.74940128  0.35004578  0.14886897     0.20500
H465        H  0.71642970  0.38987844  0.04467190     0.10300
C466        C  0.72289038  0.35017498  0.17184291    -0.15700
C467        C  0.72169802  0.32684830  0.19789061     0.03300
C468        C  0.74699328  0.30235334  0.20070216    -0.11000
C469        C  0.77342961  0.30235033  0.17749183    -0.01000
C470        C  0.77506063  0.32622135  0.15205405    -0.06200
H471        H  0.70324964  0.36876157  0.16967781     0.06300
H472        H  0.79296092  0.28366775  0.17917609     0.09700
Br473      Br  0.70855903  0.32811426  0.08406792    -0.05900
Br474      Br  0.78960302  0.47071194  0.10967049    -0.02800
Br475      Br  0.68585095  0.33069028  0.22956817     0.00000
Br476      Br  0.81279965  0.32553823  0.12239158    -0.04400
C477        C  0.75196109  0.69768421  0.80283262    -0.11800
C478        C  0.77308161  0.69528850  0.83096971     0.03700
C479        C  0.76986226  0.66830481  0.85304562    -0.12300
C480        C  0.74566203  0.64351027  0.84778846     0.18600
C481        C  0.72445135  0.64589962  0.81980665    -0.09400
C482        C  0.72786734  0.67269982  0.79753445    -0.02300
H483        H  0.78602996  0.66687143  0.87474256     0.05100
C484        C  0.74207583  0.61646329  0.87285434     0.20500
H485        H  0.71134247  0.67427831  0.77614999     0.10300
C486        C  0.72728097  0.62387576  0.90383700    -0.15700
C487        C  0.72557734  0.59976396  0.92919463     0.03300
C488        C  0.73949524  0.56782233  0.92398757    -0.11000
C489        C  0.75402054  0.56027201  0.89287168    -0.01000
C490        C  0.75500592  0.58415550  0.86722296    -0.06200
H491        H  0.71750509  0.64872111  0.90847527     0.06300
H492        H  0.76467225  0.53571475  0.88854567     0.09700
Br493      Br  0.68965795  0.61396135  0.81180236    -0.05900
Br494      Br  0.80567531  0.72875278  0.84139667    -0.02800
Br495      Br  0.70618809  0.61234656  0.97127662     0.00000
Br496      Br  0.77486137  0.57181850  0.82528530    -0.04400
C497        C  0.25154475  0.30096474  0.80394358    -0.11800
C498        C  0.26597662  0.33212126  0.79611557     0.03700
C499        C  0.26460634  0.35834618  0.81930116    -0.12300
C500        C  0.24927825  0.35388218  0.85057237     0.18600
C501        C  0.23556633  0.32253673  0.85869912    -0.09400
C502        C  0.23690120  0.29636760  0.83551203    -0.02300
H503        H  0.27582931  0.38218338  0.81309380     0.05100
C504        C  0.24935031  0.38150655  0.87520068     0.20500
H505        H  0.22621451  0.27244505  0.84206727     0.10300
C506        C  0.22022146  0.40038521  0.88050156    -0.15700
C507        C  0.21920943  0.42564173  0.90485766     0.03300
C508        C  0.24784611  0.43213182  0.92475673    -0.11000
C509        C  0.27713648  0.41343621  0.91862794    -0.01000
C510        C  0.27804214  0.38847512  0.89418009    -0.06200
H511        H  0.19813381  0.39535807  0.86563515     0.06300
H512        H  0.29948820  0.41782166  0.93327702     0.09700
Br513      Br  0.21542238  0.31426873  0.90146671    -0.05900
Br514      Br  0.28878789  0.33951183  0.75453882    -0.02800
Br515      Br  0.17832151  0.45074125  0.90833915     0.00000
Br516      Br  0.31880241  0.36378411  0.88812438    -0.04400
C517        C  0.24966233  0.70079403  0.19912264    -0.11800
C518        C  0.23897664  0.70624638  0.16598240     0.03700
C519        C  0.24146959  0.68050972  0.14248610    -0.12300
C520        C  0.25450966  0.64924365  0.15147272     0.18600
C521        C  0.26534911  0.64378271  0.18448850    -0.09400
C522        C  0.26250905  0.66938648  0.20808961    -0.02300
H523        H  0.23297866  0.68479406  0.11710579     0.05100
C524        C  0.25565640  0.62252954  0.12609612     0.20500
H525        H  0.27070601  0.66489732  0.23350073     0.10300
C526        C  0.27982791  0.62384744  0.10070468    -0.15700
C527        C  0.28019940  0.60006311  0.07500686     0.03300
C528        C  0.25583097  0.57446874  0.07448072    -0.11000
C529        C  0.23160204  0.57345685  0.09995861    -0.01000
C530        C  0.23144852  0.59708999  0.12567756    -0.06200
H531        H  0.29812386  0.64381436  0.10060567     0.06300
H532        H  0.21259096  0.55420182  0.09986408     0.09700
Br533      Br  0.28495285  0.60216647  0.19812966    -0.05900
Br534      Br  0.22056688  0.74800961  0.15140582    -0.02800
Br535      Br  0.31280368  0.60569756  0.04011825     0.00000
Br536      Br  0.19697388  0.59443633  0.15905262    -0.04400
C537        C  0.29985407  0.19503279  0.75553164    -0.11800
C538        C  0.29088986  0.16126361  0.76049123     0.03700
C539        C  0.31548646  0.13631082  0.75928085    -0.12300
C540        C  0.34917673  0.14456636  0.75424846     0.18600
C541        C  0.35838723  0.17825748  0.75088926    -0.09400
C542        C  0.33381335  0.20307362  0.75133994    -0.02300
H543        H  0.30839562  0.11040241  0.76263820     0.05100
C544        C  0.37453559  0.11782215  0.75253466     0.20500
H545        H  0.34121457  0.22878260  0.74749773     0.10300
C546        C  0.38048598  0.10174339  0.72199750    -0.15700
C547        C  0.40533851  0.07716495  0.71908182     0.03300
C548        C  0.42506909  0.06854141  0.74729878    -0.11000
C549        C  0.41833820  0.08453948  0.77800924    -0.01000
C550        C  0.39333622  0.10884367  0.78076714    -0.06200
H551        H  0.36571541  0.10845468  0.70027197     0.06300
H552        H  0.43274323  0.07837969  0.80011228     0.09700
Br553      Br  0.40419028  0.19144343  0.74527838    -0.05900
Br554      Br  0.24598196  0.14786035  0.77066009    -0.02800
Br555      Br  0.40954539  0.05599212  0.67612701     0.00000
Br556      Br  0.38562276  0.12927450  0.82354063    -0.04400
C557        C  0.57254812  0.92416812  0.74555876    -0.11800
C558        C  0.56936065  0.89589030  0.76647163     0.03700
C559        C  0.59452381  0.87158411  0.76681386    -0.12300
C560        C  0.62312384  0.87515695  0.74690111     0.18600
C561        C  0.62634123  0.90321078  0.72593774    -0.09400
C562        C  0.60090115  0.92726525  0.72503998    -0.02300
H563        H  0.59197365  0.84996031  0.78294643     0.05100
C564        C  0.64983458  0.84987625  0.74927689     0.20500
H565        H  0.60373881  0.94894687  0.70904358     0.10300
C566        C  0.64828178  0.82109433  0.72935322    -0.15700
C567        C  0.67337181  0.79671745  0.73130452     0.03300
C568        C  0.70048946  0.80117389  0.75334831    -0.11000
C569        C  0.70131492  0.82948792  0.77395976    -0.01000
C570        C  0.67639800  0.85388718  0.77191219    -0.06200
H571        H  0.62753418  0.81763795  0.71228194     0.06300
H572        H  0.72170462  0.83293562  0.79133791     0.09700
Br573      Br  0.66562151  0.91019863  0.69927347    -0.05900
Br574      Br  0.53067408  0.88835078  0.79401474    -0.02800
Br575      Br  0.66923049  0.75748918  0.70407794     0.00000
Br576      Br  0.67969263  0.89244542  0.80022174    -0.04400
C577        C  0.29677287  0.75572477  0.80286191    -0.11800
C578        C  0.29582592  0.78096753  0.82751438     0.03700
C579        C  0.32052799  0.78199207  0.85238850    -0.12300
C580        C  0.34588587  0.75772231  0.85344927     0.18600
C581        C  0.34629180  0.73207415  0.82947437    -0.09400
C582        C  0.32218463  0.73150238  0.80426376    -0.02300
H583        H  0.31979788  0.80154209  0.87111763     0.05100
C584        C  0.37165387  0.75895091  0.87984302     0.20500
H585        H  0.32332110  0.71195252  0.78565118     0.10300
C586        C  0.36551241  0.74314728  0.91053131    -0.15700
C587        C  0.39056696  0.74113451  0.93490401     0.03300
C588        C  0.42208982  0.75570973  0.92890691    -0.11000
C589        C  0.42786129  0.77238819  0.89857635    -0.01000
C590        C  0.40310179  0.77359587  0.87387125    -0.06200
H591        H  0.34138804  0.73175827  0.91522621     0.06300
H592        H  0.45205994  0.78356922  0.89368528     0.09700
Br593      Br  0.37902831  0.69696181  0.83064609    -0.05900
Br594      Br  0.26069017  0.81364298  0.82918152    -0.02800
Br595      Br  0.38026462  0.71906864  0.97624505     0.00000
Br596      Br  0.41374632  0.79400019  0.83177874    -0.04400
C597        C  0.19722687  0.69908629  0.75162641    -0.11800
C598        C  0.20550856  0.66720824  0.73916098     0.03700
C599        C  0.18221930  0.64130408  0.74114102    -0.12300
C600        C  0.14994229  0.64709424  0.75376400     0.18600
C601        C  0.14140112  0.67929375  0.76536185    -0.09400
C602        C  0.16513815  0.70486369  0.76452663    -0.02300
H603        H  0.18896376  0.61675027  0.73187650     0.05100
C604        C  0.12511060  0.61971759  0.75334650     0.20500
H605        H  0.15840748  0.72948627  0.77353934     0.10300
C606        C  0.11147828  0.60827018  0.78354513    -0.15700
C607        C  0.08660713  0.58367115  0.78399600     0.03300
C608        C  0.07496729  0.56979573  0.75344702    -0.11000
C609        C  0.08965958  0.58077100  0.72336465    -0.01000
C610        C  0.11443804  0.60531129  0.72310442    -0.06200
H611        H  0.12003295  0.61888298  0.80696449     0.06300
H612        H  0.08167952  0.57049232  0.69962329     0.09700
Br613      Br  0.09721498  0.69019282  0.78077981    -0.05900
Br614      Br  0.24730282  0.65843151  0.71713441    -0.02800
Br615      Br  0.07007645  0.57124531  0.82744327     0.00000
Br616      Br  0.13190340  0.61906844  0.68050571    -0.04400
C617        C  0.25478533  0.92499589  0.56992062    -0.11800
C618        C  0.22770725  0.90220917  0.57112878     0.03700
C619        C  0.22720092  0.87698731  0.59536396    -0.12300
C620        C  0.25342977  0.87355074  0.61826760     0.18600
C621        C  0.28103653  0.89518325  0.61638518    -0.09400
C622        C  0.28155985  0.92066389  0.59238093    -0.02300
H623        H  0.20614020  0.85999278  0.59646900     0.05100
C624        C  0.25078254  0.84819529  0.64490370     0.20500
H625        H  0.30273927  0.93751194  0.59170689     0.10300
C626        C  0.26411847  0.81614838  0.63985801    -0.15700
C627        C  0.26221362  0.79193869  0.66509021     0.03300
C628        C  0.24674187  0.79976039  0.69579656    -0.11000
C629        C  0.23266863  0.83156812  0.70035491    -0.01000
C630        C  0.23477815  0.85578938  0.67530374    -0.06200
H631        H  0.27623513  0.81008892  0.61636872     0.06300
H632        H  0.22070354  0.83787237  0.72380821     0.09700
Br633      Br  0.31813004  0.89106512  0.64658947    -0.05900
Br634      Br  0.19147344  0.90259669  0.53954565    -0.02800
Br635      Br  0.28122054  0.74873866  0.65664003     0.00000
Br636      Br  0.21621941  0.89920422  0.68388728    -0.04400
C637        C  0.24651670  0.70330013  0.80388289    -0.11800
C638        C  0.22622560  0.70710551  0.83243839     0.03700
C639        C  0.22650921  0.68248565  0.85729213    -0.12300
C640        C  0.24680344  0.65405379  0.85390439     0.18600
C641        C  0.26651352  0.64995969  0.82506948    -0.09400
C642        C  0.26634325  0.67457671  0.80043057    -0.02300
H643        H  0.21100841  0.68553594  0.87933301     0.05100
C644        C  0.24707352  0.62863393  0.88046364     0.20500
H645        H  0.28180462  0.67127163  0.77847352     0.10300
C646        C  0.22134670  0.60502706  0.88156739    -0.15700
C647        C  0.22175027  0.57934166  0.90524347     0.03300
C648        C  0.24832427  0.57719637  0.92855159    -0.11000
C649        C  0.27405015  0.60109059  0.92731525    -0.01000
C650        C  0.27348496  0.62677214  0.90358706    -0.06200
H651        H  0.20123359  0.60620107  0.86342359     0.06300
H652        H  0.29448347  0.60002624  0.94508589     0.09700
Br653      Br  0.29348355  0.61085677  0.81801690    -0.05900
Br654      Br  0.19779326  0.74529410  0.83839456    -0.02800
Br655      Br  0.18644340  0.54693812  0.90257527     0.00000
Br656      Br  0.30905837  0.65896009  0.90354984    -0.04400
C657        C  0.42889458  0.92290933  0.74245230    -0.11800
C658        C  0.41775440  0.90759011  0.71242064     0.03700
C659        C  0.39286350  0.88307133  0.71363215    -0.12300
C660        C  0.37845651  0.87351410  0.74405190     0.18600
C661        C  0.38991145  0.88790881  0.77395969    -0.09400
C662        C  0.41485016  0.91226145  0.77299024    -0.02300
H663        H  0.38424466  0.87173431  0.69058932     0.05100
C664        C  0.35096359  0.84902659  0.74404058     0.20500
H665        H  0.42296771  0.92312255  0.79642195     0.10300
C666        C  0.35778116  0.81549949  0.73645444    -0.15700
C667        C  0.33221549  0.79167976  0.73689934     0.03300
C668        C  0.29943108  0.80124954  0.74594188    -0.11000
C669        C  0.29268115  0.83496052  0.75284290    -0.01000
C670        C  0.31793204  0.85890666  0.75118357    -0.06200
H671        H  0.38304338  0.80789846  0.73010642     0.06300
H672        H  0.26764154  0.84273418  0.75961797     0.09700
Br673      Br  0.37221863  0.87510841  0.81676314    -0.05900
Br674      Br  0.43467562  0.91824084  0.66867708    -0.02800
Br675      Br  0.34322916  0.74686627  0.72385547     0.00000
Br676      Br  0.30595307  0.90494010  0.75758378    -0.04400
C677        C  0.07035831  0.74959512  0.42506752    -0.11800
C678        C  0.06490995  0.73467383  0.39361185     0.03700
C679        C  0.08961009  0.73661303  0.36886784    -0.12300
C680        C  0.12010828  0.75256679  0.37531341     0.18600
C681        C  0.12581521  0.76695710  0.40689256    -0.09400
C682        C  0.10077085  0.76587723  0.43133352    -0.02300
H683        H  0.08513776  0.72546312  0.34459415     0.05100
C684        C  0.14600562  0.75319215  0.34906346     0.20500
H685        H  0.10528243  0.77720217  0.45552811     0.10300
C686        C  0.14535559  0.77838624  0.32469089    -0.15700
C687        C  0.16977224  0.77955602  0.29955772     0.03300
C688        C  0.19520130  0.75499728  0.29861740    -0.11000
C689        C  0.19530876  0.72961803  0.32283495    -0.01000
C690        C  0.17118480  0.72868861  0.34802303    -0.06200
H691        H  0.12583285  0.79721565  0.32531031     0.06300
H692        H  0.21457783  0.71056012  0.32235452     0.09700
Br693      Br  0.16773256  0.78743434  0.41786424    -0.05900
Br694      Br  0.02377194  0.71260864  0.38276748    -0.02800
Br695      Br  0.16649777  0.81466886  0.26706447     0.00000
Br696      Br  0.17375106  0.69367586  0.38067185    -0.04400
C697        C  0.92751293  0.74778025  0.57387887    -0.11800
C698        C  0.92204315  0.71990697  0.59510070     0.03700
C699        C  0.89848887  0.72205380  0.62095956    -0.12300
C700        C  0.88008916  0.75142115  0.62630760     0.18600
C701        C  0.88567985  0.77926726  0.60563652    -0.09400
C702        C  0.90915190  0.77729270  0.57976620    -0.02300
H703        H  0.89443868  0.70063779  0.63706549     0.05100
C704        C  0.85459452  0.75222767  0.65307332     0.20500
H705        H  0.91276020  0.79898349  0.56395466     0.10300
C706        C  0.86026288  0.77128652  0.68197344    -0.15700
C707        C  0.83643671  0.77238255  0.70765241     0.03300
C708        C  0.80640150  0.75427323  0.70446451    -0.11000
C709        C  0.80096766  0.73504779  0.67568289    -0.01000
C710        C  0.82471287  0.73393876  0.65008267    -0.06200
H711        H  0.88336260  0.78517190  0.68459073     0.06300
H712        H  0.77800899  0.72098553  0.67305556     0.09700
Br713      Br  0.86101387  0.82014568  0.61108132    -0.05900
Br714      Br  0.94639328  0.67855966  0.59163976    -0.02800
Br715      Br  0.84653558  0.79802624  0.74681047     0.00000
Br716      Br  0.81484477  0.70781190  0.61111869    -0.04400
C717        C  0.19305490  0.75069777  0.70112369    -0.11800
C718        C  0.16489235  0.77172481  0.70450456     0.03700
C719        C  0.13928611  0.77065834  0.68058887    -0.12300
C720        C  0.14086630  0.74804640  0.65381653     0.18600
C721        C  0.16829051  0.72607258  0.65130881    -0.09400
C722        C  0.19421242  0.72770585  0.67469231    -0.02300
H723        H  0.11805645  0.78739275  0.68291294     0.05100
C724        C  0.11495628  0.74887441  0.62745714     0.20500
H725        H  0.21533167  0.71090284  0.67228809     0.10300
C726        C  0.11862299  0.77150148  0.60097277    -0.15700
C727        C  0.09627049  0.77147311  0.57405082     0.03300
C728        C  0.06970221  0.74823536  0.57321937    -0.11000
C729        C  0.06595641  0.72571340  0.59997889    -0.01000
C730        C  0.08811178  0.72616650  0.62715042    -0.06200
H731        H  0.13942181  0.78884770  0.60094857     0.06300
H732        H  0.04534549  0.70815298  0.60007427     0.09700
Br733      Br  0.17138941  0.69362800  0.61613953    -0.05900
Br734      Br  0.15975256  0.80115406  0.74205044    -0.02800
Br735      Br  0.10474211  0.80231159  0.53822543     0.00000
Br736      Br  0.08061797  0.69587149  0.66356616    -0.04400
C737        C  0.57158264  0.74622876  0.06995185    -0.11800
C738        C  0.56710826  0.76280883  0.10076957     0.03700
C739        C  0.59240250  0.76178159  0.12490283    -0.12300
C740        C  0.62241377  0.74469153  0.11871807     0.18600
C741        C  0.62694028  0.72805933  0.08801204    -0.09400
C742        C  0.60141651  0.72860755  0.06401051    -0.02300
H743        H  0.58867728  0.77436194  0.14862384     0.05100
C744        C  0.64844671  0.74433234  0.14488775     0.20500
H745        H  0.60515392  0.71588269  0.04037074     0.10300
C746        C  0.64712385  0.71998669  0.17003004    -0.15700
C747        C  0.67029113  0.71999223  0.19626583     0.03300
C748        C  0.69576036  0.74442693  0.19727005    -0.11000
C749        C  0.69685197  0.76881051  0.17198792    -0.01000
C750        C  0.67336370  0.76903888  0.14608527    -0.06200
H751        H  0.62755715  0.70128004  0.16955493     0.06300
H752        H  0.71609350  0.78781137  0.17241801     0.09700
Br753      Br  0.66779993  0.70503987  0.07766466    -0.05900
Br754      Br  0.52626633  0.78566769  0.11184466    -0.02800
Br755      Br  0.66446391  0.68723636  0.23078340     0.00000
Br756      Br  0.67573623  0.80386535  0.11321286    -0.04400
C757        C  0.92385238  0.57047573  0.25814418    -0.11800
C758        C  0.91923046  0.59244645  0.28561498     0.03700
C759        C  0.89256036  0.61516598  0.28556127    -0.12300
C760        C  0.87035423  0.61675756  0.25858500     0.18600
C761        C  0.87449438  0.59481757  0.23146039    -0.09400
C762        C  0.90104874  0.57195389  0.23136221    -0.02300
H763        H  0.88958798  0.63231073  0.30631906     0.05100
C764        C  0.84495655  0.64352847  0.25771089     0.20500
H765        H  0.90377021  0.55519509  0.21024984     0.10300
C766        C  0.85262295  0.67325279  0.24090879    -0.15700
C767        C  0.82914556  0.69905572  0.23861341     0.03300
C768        C  0.79750359  0.69551570  0.25372911    -0.11000
C769        C  0.79013778  0.66595344  0.27121305    -0.01000
C770        C  0.81346410  0.63987378  0.27297917    -0.06200
H771        H  0.87688804  0.67617588  0.22914949     0.06300
H772        H  0.76598523  0.66304919  0.28317943     0.09700
Br773      Br  0.84440352  0.59551853  0.19406531    -0.05900
Br774      Br  0.94937037  0.59485532  0.32299646    -0.02800
Br775      Br  0.84153909  0.73807634  0.21400022     0.00000
Br776      Br  0.80103922  0.59943355  0.29547025    -0.04400
C777        C  0.74683543  0.92306698  0.42853585    -0.11800
C778        C  0.77180370  0.89795000  0.42620378     0.03700
C779        C  0.76917687  0.87281000  0.40194290    -0.12300
C780        C  0.74184554  0.87177319  0.38006375     0.18600
C781        C  0.71624053  0.89571717  0.38328299    -0.09400
C782        C  0.71888188  0.92109506  0.40724841    -0.02300
H783        H  0.78869735  0.85406219  0.39995965     0.05100
C784        C  0.74133046  0.84659160  0.35295914     0.20500
H785        H  0.69912292  0.93960240  0.40893507     0.10300
C786        C  0.73078336  0.81384945  0.35965362    -0.15700
C787        C  0.73086718  0.78953473  0.33438011     0.03300
C788        C  0.74193054  0.79781181  0.30186406    -0.11000
C789        C  0.75172353  0.83081962  0.29521532    -0.01000
C790        C  0.75177776  0.85500504  0.32043356    -0.06200
H791        H  0.72246526  0.80722660  0.38458640     0.06300
H792        H  0.76013056  0.83770196  0.27044002     0.09700
Br793      Br  0.67723472  0.89451695  0.35543697    -0.05900
Br794      Br  0.80910574  0.89506950  0.45639728    -0.02800
Br795      Br  0.71500452  0.74567260  0.34536593     0.00000
Br796      Br  0.76747036  0.89899602  0.30968052    -0.04400
C797        C  0.74862418  0.69376246  0.19990555    -0.11800
C798        C  0.75886485  0.70019573  0.16673485     0.03700
C799        C  0.75795562  0.67463212  0.14282469    -0.12300
C800        C  0.74725781  0.64239014  0.15141622     0.18600
C801        C  0.73838782  0.63552891  0.18477043    -0.09400
C802        C  0.73911266  0.66110041  0.20861967    -0.02300
H803        H  0.76556962  0.67992579  0.11735293     0.05100
C804        C  0.74637579  0.61618606  0.12530370     0.20500
H805        H  0.73154635  0.65556095  0.23400269     0.10300
C806        C  0.77647128  0.60191974  0.11444937    -0.15700
C807        C  0.77700861  0.57775180  0.08911689     0.03300
C808        C  0.74672602  0.56785969  0.07339558    -0.11000
C809        C  0.71652026  0.58218307  0.08480837    -0.01000
C810        C  0.71616486  0.60594370  0.11054130    -0.06200
H811        H  0.79976704  0.60954555  0.12598020     0.06300
H812        H  0.69291996  0.57505430  0.07361634     0.09700
Br813      Br  0.72547117  0.59159065  0.19891629    -0.05900
Br814      Br  0.77525127  0.74301840  0.15289945    -0.02800
Br815      Br  0.82018362  0.55916132  0.07872689     0.00000
Br816      Br  0.67388697  0.62408020  0.12448078    -0.04400
C817        C  0.92450500  0.74980249  0.42641991    -0.11800
C818        C  0.89654389  0.77128131  0.42931963     0.03700
C819        C  0.87206732  0.77169906  0.40425815    -0.12300
C820        C  0.87494480  0.75102018  0.37611671     0.18600
C821        C  0.90290439  0.72980154  0.37298290    -0.09400
C822        C  0.92718285  0.72899471  0.39823162    -0.02300
H823        H  0.85039122  0.78779947  0.40699107     0.05100
C824        C  0.84785962  0.75083683  0.35095268     0.20500
H825        H  0.94844608  0.71239196  0.39559991     0.10300
C826        C  0.84772455  0.77477131  0.32536013    -0.15700
C827        C  0.82284226  0.77452154  0.30068871     0.03300
C828        C  0.79732613  0.75010773  0.30163361    -0.11000
C829        C  0.79746807  0.72643289  0.32755716    -0.01000
C830        C  0.82238905  0.72666488  0.35206585    -0.06200
H831        H  0.86735552  0.79338489  0.32430754     0.06300
H832        H  0.77813612  0.70755363  0.32866524     0.09700
Br833      Br  0.90893487  0.70191755  0.33438455    -0.05900
Br834      Br  0.88916501  0.79866588  0.46809130    -0.02800
Br835      Br  0.82602645  0.80719932  0.26571973     0.00000
Br836      Br  0.82078073  0.69348996  0.38664738    -0.04400
C837        C  0.30272042  0.80160373  0.25150779    -0.11800
C838        C  0.33298912  0.79817355  0.26936707     0.03700
C839        C  0.35767150  0.82282727  0.26684024    -0.12300
C840        C  0.35264095  0.85126912  0.24702353     0.18600
C841        C  0.32248616  0.85478408  0.22919639    -0.09400
C842        C  0.29788810  0.83005892  0.23151707    -0.02300
H843        H  0.38076603  0.82004065  0.28076211     0.05100
C844        C  0.37877792  0.87738226  0.24612300     0.20500
H845        H  0.27486912  0.83292479  0.21750262     0.10300
C846        C  0.40808712  0.87204790  0.22746405    -0.15700
C847        C  0.43345588  0.89619758  0.22659421     0.03300
C848        C  0.42982084  0.92598445  0.24509049    -0.11000
C849        C  0.40074441  0.93095770  0.26421937    -0.01000
C850        C  0.37526379  0.90704468  0.26472447    -0.06200
H851        H  0.41130791  0.84892711  0.21374812     0.06300
H852        H  0.39774437  0.95368581  0.27868011     0.09700
Br853      Br  0.31405462  0.89268026  0.20106591    -0.05900
Br854      Br  0.34213730  0.76096692  0.29791924    -0.02800
Br855      Br  0.47339998  0.88643739  0.20167847     0.00000
Br856      Br  0.33648832  0.91545115  0.29188566    -0.04400
C857        C  0.56914013  0.07747497  0.25066547    -0.11800
C858        C  0.56515137  0.10760947  0.23271251     0.03700
C859        C  0.58995849  0.13231454  0.23440755    -0.12300
C860        C  0.61894417  0.12729023  0.25356919     0.18600
C861        C  0.62281637  0.09734635  0.27159472    -0.09400
C862        C  0.59784915  0.07291746  0.27038198    -0.02300
H863        H  0.58678428  0.15539082  0.22055951     0.05100
C864        C  0.64553203  0.15292388  0.25376028     0.20500
H865        H  0.60129089  0.04985693  0.28419590     0.10300
C866        C  0.64556354  0.17771325  0.27855770    -0.15700
C867        C  0.67098685  0.20177601  0.27967914     0.03300
C868        C  0.69742551  0.20065196  0.25626604    -0.11000
C869        C  0.69694170  0.17600245  0.23122914    -0.01000
C870        C  0.67123750  0.15241864  0.22974357    -0.06200
H871        H  0.62547760  0.17861940  0.29675715     0.06300
H872        H  0.71636824  0.17552053  0.21234207     0.09700
Br873      Br  0.66246641  0.08837385  0.29710748    -0.05900
Br874      Br  0.52568987  0.11685980  0.20691902    -0.02800
Br875      Br  0.66678190  0.23736750  0.31154060     0.00000
Br876      Br  0.67184562  0.12023791  0.19420560    -0.04400
C877        C  0.57668482  0.93135906  0.24458399    -0.11800
C878        C  0.60066208  0.92792142  0.27035604     0.03700
C879        C  0.62442494  0.90221639  0.26877872    -0.12300
C880        C  0.62500853  0.87985281  0.24184772     0.18600
C881        C  0.60189323  0.88373645  0.21566666    -0.09400
C882        C  0.57807306  0.90938594  0.21711207    -0.02300
H883        H  0.64255484  0.89956645  0.28869674     0.05100
C884        C  0.64914970  0.85189495  0.24223837     0.20500
H885        H  0.56004292  0.91162751  0.19700663     0.10300
C886        C  0.64020297  0.82203362  0.25818438    -0.15700
C887        C  0.66287337  0.79544271  0.26037866     0.03300
C888        C  0.69500493  0.79842314  0.24617542    -0.11000
C889        C  0.70368961  0.82821092  0.22973404    -0.01000
C890        C  0.68117239  0.85497640  0.22798826    -0.06200
H891        H  0.61561522  0.81961688  0.26938039     0.06300
H892        H  0.72829602  0.83077226  0.21863031     0.09700
Br893      Br  0.60169226  0.85417348  0.17786408    -0.05900
Br894      Br  0.60355444  0.95827537  0.30745759    -0.02800
Br895      Br  0.64891984  0.75619945  0.28379919     0.00000
Br896      Br  0.69531205  0.89551235  0.20670913    -0.04400
C897        C  0.57204379  0.23239109  0.92385498    -0.11800
C898        C  0.57892528  0.20415692  0.90352200     0.03700
C899        C  0.60343083  0.20619198  0.87834265    -0.12300
C900        C  0.62163717  0.23574385  0.87318210     0.18600
C901        C  0.61505330  0.26361921  0.89353334    -0.09400
C902        C  0.59053528  0.26181970  0.91830973    -0.02300
H903        H  0.60820888  0.18467529  0.86257087     0.05100
C904        C  0.64699170  0.23781676  0.84617858     0.20500
H905        H  0.58628510  0.28373397  0.93365333     0.10300
C906        C  0.64111357  0.25924415  0.81902754    -0.15700
C907        C  0.66541681  0.26405110  0.79431670     0.03300
C908        C  0.69652940  0.24756335  0.79668621    -0.11000
C909        C  0.70220421  0.22568430  0.82358352    -0.01000
C910        C  0.67762470  0.22044665  0.84803419    -0.06200
H911        H  0.61745455  0.27239448  0.81715146     0.06300
H912        H  0.72574808  0.21235392  0.82532393     0.09700
Br913      Br  0.63972155  0.30458447  0.88924149    -0.05900
Br914      Br  0.55555853  0.16247965  0.90772802    -0.02800
Br915      Br  0.65402399  0.29221137  0.75733182     0.00000
Br916      Br  0.68716106  0.18975433  0.88364260    -0.04400
C917        C  0.79954392  0.30121561  0.74598773    -0.11800
C918        C  0.82773757  0.29720782  0.76676775     0.03700
C919        C  0.85424790  0.31999882  0.76486370    -0.12300
C920        C  0.85340649  0.34682667  0.74218381     0.18600
C921        C  0.82587649  0.34991225  0.72038281    -0.09400
C922        C  0.79925093  0.32740177  0.72264179    -0.02300
H923        H  0.87564392  0.31682827  0.78118831     0.05100
C924        C  0.88051999  0.37217737  0.74269908     0.20500
H925        H  0.77835595  0.33012905  0.70572973     0.10300
C926        C  0.90139680  0.37639632  0.71474359    -0.15700
C927        C  0.92613263  0.40128365  0.71421730     0.03300
C928        C  0.92991185  0.42298505  0.74198952    -0.11000
C929        C  0.90952172  0.41788098  0.77018594    -0.01000
C930        C  0.88544289  0.39266139  0.77087053    -0.06200
H931        H  0.89855039  0.36007625  0.69330407     0.06300
H932        H  0.91216938  0.43370531  0.79200572     0.09700
Br933      Br  0.82307654  0.38455235  0.68728841    -0.05900
Br934      Br  0.83203278  0.26006790  0.79678720    -0.02800
Br935      Br  0.95496203  0.40253507  0.67574825     0.00000
Br936      Br  0.85989075  0.38750916  0.81108289    -0.04400
C937        C  0.75679239  0.06909943  0.57346147    -0.11800
C938        C  0.76977608  0.10108091  0.56674901     0.03700
C939        C  0.77005756  0.12528674  0.59194527    -0.12300
C940        C  0.75774928  0.11796043  0.62396087     0.18600
C941        C  0.74509973  0.08586592  0.63082885    -0.09400
C942        C  0.74452508  0.06171854  0.60551290    -0.02300
H943        H  0.77929607  0.15012907  0.58640244     0.05100
C944        C  0.75569146  0.14503799  0.64883577     0.20500
H945        H  0.73441854  0.03716116  0.61080079     0.10300
C946        C  0.73039393  0.16906076  0.64538364    -0.15700
C947        C  0.72766287  0.19555639  0.66794314     0.03300
C948        C  0.75051562  0.19815340  0.69467737    -0.11000
C949        C  0.77605785  0.17419886  0.69785781    -0.01000
C950        C  0.77883100  0.14778853  0.67515426    -0.06200
H951        H  0.71276216  0.16722142  0.62488698     0.06300
H952        H  0.79387586  0.17604645  0.71816811     0.09700
Br953      Br  0.72742512  0.07443370  0.67399945    -0.05900
Br954      Br  0.78509376  0.11351714  0.52297280    -0.02800
Br955      Br  0.69296074  0.22774553  0.66008366     0.00000
Br956      Br  0.81485224  0.11653057  0.68061549    -0.04400
C957        C  0.74545159  0.30203756  0.79581146    -0.11800
C958        C  0.73322457  0.33441275  0.78913176     0.03700
C959        C  0.73164620  0.35804191  0.81480525    -0.12300
C960        C  0.74405616  0.35077070  0.84681279     0.18600
C961        C  0.75733415  0.31866881  0.85317599    -0.09400
C962        C  0.75713826  0.29442483  0.82798395    -0.02300
H963        H  0.72105623  0.38244265  0.80961912     0.05100
C964        C  0.74263057  0.37677925  0.87322603     0.20500
H965        H  0.76677323  0.26967220  0.83332071     0.10300
C966        C  0.72467840  0.37037984  0.90278371    -0.15700
C967        C  0.72336654  0.39402797  0.92855671     0.03300
C968        C  0.74061804  0.42449656  0.92511184    -0.11000
C969        C  0.75799872  0.43117873  0.89543923    -0.01000
C970        C  0.75852936  0.40802683  0.86932198    -0.06200
H971        H  0.71168472  0.34682506  0.90582971     0.06300
H972        H  0.77081072  0.45484481  0.89235983     0.09700
Br973      Br  0.77787854  0.30719832  0.89503882    -0.05900
Br974      Br  0.71882284  0.34808243  0.74548552    -0.02800
Br975      Br  0.69913087  0.38283863  0.96844249     0.00000
Br976      Br  0.78119746  0.42091189  0.82908721    -0.04400
C977        C  0.69832723  0.19707293  0.74569666    -0.11800
C978        C  0.70602212  0.16519529  0.75863370     0.03700
C979        C  0.68158935  0.14013362  0.75873066    -0.12300
C980        C  0.64933828  0.14657741  0.74645230     0.18600
C981        C  0.64134238  0.17871027  0.73466805    -0.09400
C982        C  0.66575297  0.20357542  0.73439746    -0.02300
H983        H  0.68766303  0.11563209  0.76856790     0.05100
C984        C  0.62396449  0.11985980  0.74684760     0.20500
H985        H  0.65928320  0.22811108  0.72514369     0.10300
C986        C  0.60742376  0.11245496  0.77679585    -0.15700
C987        C  0.58206301  0.08838062  0.77790517     0.03300
C988        C  0.57306712  0.07083344  0.74840286    -0.11000
C989        C  0.59011155  0.07842416  0.71845495    -0.01000
C990        C  0.61525562  0.10265161  0.71751702    -0.06200
H991        H  0.61389265  0.12599874  0.79935656     0.06300
H992        H  0.58400316  0.06541855  0.69550580     0.09700
Br993      Br  0.59723136  0.18993913  0.71936656    -0.05900
Br994      Br  0.74879324  0.15530986  0.77799131    -0.02800
Br995      Br  0.56034701  0.08241763  0.82040146     0.00000
Br996      Br  0.63712347  0.11150727  0.67565827    -0.04400
C997        C  0.43547185  0.24736804  0.07869864    -0.11800
C998        C  0.43198361  0.22313377  0.10418757     0.03700
C999        C  0.40812011  0.22778006  0.12940559    -0.12300
C1000       C  0.38776783  0.25630409  0.13014886     0.18600
C1001       C  0.39272347  0.28151061  0.10622160    -0.09400
C1002       C  0.41623512  0.27685740  0.08068893    -0.02300
H1003       H  0.40502032  0.20879108  0.14841700     0.05100
C1004       C  0.35968595  0.25769370  0.15420363     0.20500
H1005       H  0.41897728  0.29620743  0.06190672     0.10300
C1006       C  0.36199754  0.27737258  0.18314586    -0.15700
C1007       C  0.33605728  0.27746516  0.20680489     0.03300
C1008       C  0.30748600  0.25744862  0.20167493    -0.11000
C1009       C  0.30507875  0.23834062  0.17242118    -0.01000
C1010       C  0.33078560  0.23842686  0.14875785    -0.06200
H1011       H  0.38408718  0.29237289  0.18744364     0.06300
H1012       H  0.28332250  0.22292871  0.16817694     0.09700
Br1013     Br  0.36747942  0.32225553  0.10705236    -0.05900
Br1014     Br  0.45980121  0.18404311  0.10714581    -0.02800
Br1015     Br  0.34087723  0.30509709  0.24566322     0.00000
Br1016     Br  0.32529293  0.21197924  0.10913596    -0.04400
C1017       C  0.20075753  0.30273467  0.25012190    -0.11800
C1018       C  0.16820169  0.29662778  0.23802659     0.03700
C1019       C  0.14411465  0.32202382  0.23899945    -0.12300
C1020       C  0.15187484  0.35353158  0.25209703     0.18600
C1021       C  0.18416470  0.35957692  0.26459058    -0.09400
C1022       C  0.20837955  0.33435113  0.26328682    -0.02300
H1023       H  0.11918470  0.31720420  0.22953771     0.05100
C1024       C  0.12581591  0.37968669  0.25272189     0.20500
H1025       H  0.23317474  0.33920826  0.27305697     0.10300
C1026       C  0.10617746  0.38355156  0.28142817    -0.15700
C1027       C  0.08082727  0.40769330  0.28280389     0.03300
C1028       C  0.07458553  0.42851423  0.25470655    -0.11000
C1029       C  0.09449579  0.42432962  0.22592054    -0.01000
C1030       C  0.12003909  0.40033004  0.22487779    -0.06200
H1031       H  0.11054849  0.36753847  0.30286599     0.06300
H1032       H  0.09052074  0.44007370  0.20423247     0.09700
Br1033     Br  0.19607149  0.40180418  0.28378538    -0.05900
Br1034     Br  0.15515551  0.25447165  0.21973810    -0.02800
Br1035     Br  0.05528369  0.40936272  0.32353624     0.00000
Br1036     Br  0.14697188  0.39682050  0.18524459    -0.04400
C1037       C  0.25996521  0.07442407  0.42708166    -0.11800
C1038       C  0.23119819  0.08287316  0.40801473     0.03700
C1039       C  0.23313695  0.10767545  0.38347455    -0.12300
C1040       C  0.26324432  0.12414804  0.37671621     0.18600
C1041       C  0.29210156  0.11542813  0.39484611    -0.09400
C1042       C  0.29029885  0.09087868  0.41980825    -0.02300
H1043       H  0.21091907  0.11413193  0.36935852     0.05100
C1044       C  0.26343949  0.15058758  0.35083996     0.20500
H1045       H  0.31280656  0.08470826  0.43355473     0.10300
C1046       C  0.26686214  0.18413453  0.36046929    -0.15700
C1047       C  0.26436725  0.20992254  0.33685029     0.03300
C1048       C  0.25743053  0.20232822  0.30304980    -0.11000
C1049       C  0.25434916  0.16860051  0.29362708    -0.01000
C1050       C  0.25775595  0.14290146  0.31701763    -0.06200
H1051       H  0.27138511  0.19021723  0.38633443     0.06300
H1052       H  0.24922369  0.16222093  0.26802089     0.09700
Br1053     Br  0.33465561  0.13552112  0.38545603    -0.05900
Br1054     Br  0.18846550  0.06127001  0.41242416    -0.02800
Br1055     Br  0.27233311  0.25463346  0.35215255     0.00000
Br1056     Br  0.25554503  0.09763301  0.30132645    -0.04400
C1057       C  0.25177065  0.30376212  0.19857504    -0.11800
C1058       C  0.23671162  0.29707855  0.16743737     0.03700
C1059       C  0.23612893  0.32173727  0.14258586    -0.12300
C1060       C  0.25160930  0.35280789  0.14765750     0.18600
C1061       C  0.26703329  0.35925417  0.17876880    -0.09400
C1062       C  0.26661159  0.33498506  0.20393784    -0.02300
H1063       H  0.22378515  0.31651384  0.11905692     0.05100
C1064       C  0.25097283  0.37843521  0.12070833     0.20500
H1065       H  0.27828028  0.34038121  0.22773875     0.10300
C1066       C  0.23628455  0.40967336  0.12729131    -0.15700
C1067       C  0.23670987  0.43516761  0.10336612     0.03300
C1068       C  0.25194564  0.42966503  0.07205886    -0.11000
C1069       C  0.26602446  0.39832781  0.06506340    -0.01000
C1070       C  0.26515152  0.37258430  0.08882168    -0.06200
H1071       H  0.22472271  0.41436856  0.15137071     0.06300
H1072       H  0.27716974  0.39367034  0.04077764     0.09700
Br1073     Br  0.29051761  0.40007133  0.18782567    -0.05900
Br1074     Br  0.21749750  0.25446532  0.15718798    -0.02800
Br1075     Br  0.21774152  0.47761144  0.11536035     0.00000
Br1076     Br  0.28363879  0.33015349  0.07612638    -0.04400
C1077       C  0.30620058  0.20304923  0.24929240    -0.11800
C1078       C  0.33407655  0.20137416  0.27076370     0.03700
C1079       C  0.35552672  0.17381285  0.26931333    -0.12300
C1080       C  0.34969763  0.14770927  0.24672030     0.18600
C1081       C  0.32181553  0.14925101  0.22530570    -0.09400
C1082       C  0.30055387  0.17695853  0.22651686    -0.02300
H1083       H  0.37703265  0.17275624  0.28584411     0.05100
C1084       C  0.37356313  0.11958278  0.24570836     0.20500
H1085       H  0.27868408  0.17761638  0.21045869     0.10300
C1086       C  0.37508596  0.09736453  0.27278420    -0.15700
C1087       C  0.39947451  0.07220604  0.27399260     0.03300
C1088       C  0.42314710  0.06934655  0.24778883    -0.11000
C1089       C  0.42086474  0.09124324  0.22038384    -0.01000
C1090       C  0.39650596  0.11622525  0.21926786    -0.06200
H1091       H  0.35733466  0.09979058  0.29316075     0.06300
H1092       H  0.43874342  0.08959894  0.20005412     0.09700
Br1093     Br  0.31087397  0.11352982  0.19527326    -0.05900
Br1094     Br  0.34419380  0.23572408  0.30239805    -0.02800
Br1095     Br  0.39800518  0.04207251  0.31137550     0.00000
Br1096     Br  0.39681356  0.14628209  0.18196823    -0.04400
C1097       C  0.92741655  0.26421526  0.42863843    -0.11800
C1098       C  0.92876123  0.28590224  0.40077504     0.03700
C1099       C  0.90251892  0.28616476  0.37750802    -0.12300
C1100       C  0.87469157  0.26523916  0.38163072     0.18600
C1101       C  0.87322951  0.24376302  0.40946697    -0.09400
C1102       C  0.89949742  0.24329057  0.43259743    -0.02300
H1103       H  0.90409271  0.30228682  0.35577394     0.05100
C1104       C  0.84870466  0.26402551  0.35535274     0.20500
H1105       H  0.89807285  0.22652105  0.45383960     0.10300
C1106       C  0.85483792  0.24507504  0.32650469    -0.15700
C1107       C  0.83032600  0.24170361  0.30179359     0.03300
C1108       C  0.79903739  0.25750428  0.30571910    -0.11000
C1109       C  0.79317486  0.27706265  0.33430307    -0.01000
C1110       C  0.81768231  0.28034957  0.35908807    -0.06200
H1111       H  0.87870257  0.23254191  0.32340455     0.06300
H1112       H  0.76935612  0.28961160  0.33743684     0.09700
Br1113     Br  0.83629912  0.21387503  0.41617177    -0.05900
Br1114     Br  0.96692740  0.31356950  0.39173979    -0.02800
Br1115     Br  0.84096702  0.21554137  0.26309789     0.00000
Br1116     Br  0.80786216  0.30738271  0.39747384    -0.04400
C1117       C  0.07405036  0.25441776  0.57430046    -0.11800
C1118       C  0.08086455  0.22489056  0.59278709     0.03700
C1119       C  0.10521795  0.22514425  0.61796751    -0.12300
C1120       C  0.12238189  0.25449795  0.62635158     0.18600
C1121       C  0.11495205  0.28414706  0.60880311    -0.09400
C1122       C  0.09132036  0.28382377  0.58298172    -0.02300
H1123       H  0.11072544  0.20218289  0.63127709     0.05100
C1124       C  0.14869793  0.25337813  0.65258073     0.20500
H1125       H  0.08633450  0.30694611  0.56978006     0.10300
C1126       C  0.18153226  0.26264626  0.64424013    -0.15700
C1127       C  0.20694204  0.26254077  0.66825043     0.03300
C1128       C  0.20027920  0.25112575  0.70089511    -0.11000
C1129       C  0.16758242  0.24135533  0.70916691    -0.01000
C1130       C  0.14176396  0.24294092  0.68558875    -0.06200
H1131       H  0.18727807  0.27072634  0.61901610     0.06300
H1132       H  0.16205399  0.23282589  0.73425260     0.09700
Br1133     Br  0.13523796  0.32616984  0.62004558    -0.05900
Br1134     Br  0.05717136  0.18355638  0.58681220    -0.02800
Br1135     Br  0.24940001  0.28064400  0.65572459     0.00000
Br1136     Br  0.09731322  0.23240096  0.70039193    -0.04400
C1137       C  0.79996326  0.25144474  0.69464658    -0.11800
C1138       C  0.79581755  0.26727515  0.66343399     0.03700
C1139       C  0.82260047  0.26880341  0.64100804    -0.12300
C1140       C  0.85379684  0.25519075  0.64939700     0.18600
C1141       C  0.85823002  0.23994615  0.68078495    -0.09400
C1142       C  0.83131694  0.23800082  0.70307889    -0.02300
H1143       H  0.81915259  0.28075536  0.61692647     0.05100
C1144       C  0.88084632  0.25592712  0.62433112     0.20500
H1145       H  0.83489460  0.22624799  0.72721413     0.10300
C1146       C  0.90395153  0.28223526  0.62434305    -0.15700
C1147       C  0.92893765  0.28417450  0.59977201     0.03300
C1148       C  0.93075945  0.25948359  0.57446095    -0.11000
C1149       C  0.90772324  0.23293361  0.57506981    -0.01000
C1150       C  0.88293277  0.23107589  0.59963273    -0.06200
H1151       H  0.90252511  0.30128756  0.64356481     0.06300
H1152       H  0.90869094  0.21364223  0.55607728     0.09700
Br1153     Br  0.90052647  0.22161310  0.69410975    -0.05900
Br1154     Br  0.75480906  0.28863670  0.65080257    -0.02800
Br1155     Br  0.96066026  0.31998519  0.60352249     0.00000
Br1156     Br  0.85223529  0.19421547  0.59856930    -0.04400
C1157       C  0.07448089  0.25659884  0.42637022    -0.11800
C1158       C  0.10489359  0.23956730  0.43184867     0.03700
C1159       C  0.12899238  0.23814825  0.40645906    -0.12300
C1160       C  0.12317873  0.25340963  0.37543543     0.18600
C1161       C  0.09270554  0.27021658  0.36979459    -0.09400
C1162       C  0.06869920  0.27195746  0.39532556    -0.02300
H1163       H  0.15255857  0.22552018  0.41106882     0.05100
C1164       C  0.14988764  0.25287071  0.34987978     0.20500
H1165       H  0.04529401  0.28489119  0.39078618     0.10300
C1166       C  0.15267496  0.22557877  0.32807618    -0.15700
C1167       C  0.17785125  0.22454477  0.30364920     0.03300
C1168       C  0.20129179  0.25089941  0.30136316    -0.11000
C1169       C  0.19829729  0.27805274  0.32347020    -0.01000
C1170       C  0.17279593  0.27932627  0.34732382    -0.06200
H1171       H  0.13484259  0.20528202  0.32973537     0.06300
H1172       H  0.21601834  0.29843998  0.32220251     0.09700
Br1173     Br  0.08301735  0.29087794  0.32755038    -0.05900
Br1174     Br  0.11538904  0.21959875  0.47424624    -0.02800
Br1175     Br  0.17738778  0.18759771  0.27307935     0.00000
Br1176     Br  0.17000135  0.31781384  0.37578490    -0.04400
loop_ 
_geom_bond_atom_site_label_1 
_geom_bond_atom_site_label_2 
_geom_bond_distance 
_geom_bond_site_symmetry_2 
_ccdc_geom_bond_type 
O1           Cu9   2.020   1_655  S
O1           C11   1.279       .  A
O2           Cu9   2.020       .  S
O2           C12   1.279       .  A
O3           Cu9   2.014   1_655  S
O3           C13   1.278       .  A
O4           Cu9   2.016       .  S
O4           C14   1.280       .  A
O5          Cu10   2.011       .  S
O5           C14   1.277       .  A
O6          Cu10   2.017   1_655  S
O6           C13   1.279       .  A
O7          Cu10   2.006       .  S
O7           C12   1.277       .  A
O8          Cu10   1.999   1_655  S
O8           C11   1.277       .  A
Cu9         Cu10   2.370       .  S
C11        C1148   1.483       .  S
C12        C1157   1.473       .  S
C13        C1097   1.480       .  S
C14        C1117   1.493       .  S
C15        C1017   1.490       .  S
C15          C16   1.423       .  A
C15          C20   1.416       .  A
C16        C1168   1.496       .  S
C16          C17   1.423       .  A
C17        C1048   1.498       .  S
C17          C18   1.420       .  A
C18        C1077   1.487       .  S
C18          C19   1.414       .  A
C19        C1008   1.489       .  S
C19          C20   1.411       .  A
C20        C1057   1.490       .  S
C21        C1137   1.487       .  S
C21          C22   1.413       .  A
C21          C26   1.415       .  A
C22         C917   1.493       .  S
C22          C23   1.418       .  A
C23         C957   1.485       .  S
C23          C24   1.419       .  A
C24         C908   1.492       .  S
C24          C25   1.414       .  A
C25         C977   1.490       .  S
C25          C26   1.416       .  A
C26         C948   1.486       .  S
O27         Cu35   2.015   1_565  S
O27          C37   1.279       .  A
O28         Cu35   2.011       .  S
O28          C38   1.278       .  A
O29         Cu35   2.006   1_565  S
O29          C39   1.277       .  A
O30         Cu35   2.009       .  S
O30          C40   1.277       .  A
O31         Cu36   2.020       .  S
O31          C40   1.279       .  A
O32         Cu36   2.018   1_565  S
O32          C39   1.279       .  A
O33         Cu36   1.998       .  S
O33          C38   1.277       .  A
O34         Cu36   2.004   1_565  S
O34          C37   1.277       .  A
Cu35        Cu36   2.372       .  S
C37         C877   1.482       .  S
C38        C1088   1.480       .  S
C39         C848   1.475       .  S
C40         C857   1.477       .  S
C41         C888   1.490       .  S
C41          C42   1.418       .  A
C41          C46   1.420       .  A
C42         C788   1.495       .  S
C42          C43   1.418       .  A
C43         C828   1.494       .  S
C43          C44   1.419       .  A
C44         C768   1.489       .  S
C44          C45   1.418       .  A
C45         C797   1.497       .  S
C45          C46   1.420       .  A
C46         C748   1.494       .  S
O47         Cu55   2.008   1_455  S
O47          C57   1.277       .  A
O48         Cu55   2.005       .  S
O48          C58   1.278       .  A
O49         Cu55   2.003   1_455  S
O49          C59   1.276       .  A
O50         Cu55   2.010       .  S
O50          C60   1.277       .  A
O51         Cu56   2.021       .  S
O51          C60   1.279       .  A
O52         Cu56   2.025   1_455  S
O52          C59   1.280       .  A
O53         Cu56   2.010       .  S
O53          C58   1.277       .  A
O54         Cu56   2.012   1_455  S
O54          C57   1.278       .  A
Cu55        Cu56   2.372       .  S
C57         C677   1.471       .  S
C58         C697   1.486       .  S
C59         C728   1.481       .  S
C60         C817   1.480       .  S
C61         C668   1.487       .  S
C61          C62   1.419       .  A
C61          C66   1.416       .  A
C62         C628   1.486       .  S
C62          C63   1.414       .  A
C63         C717   1.488       .  S
C63          C64   1.410       .  A
C64         C597   1.483       .  S
C64          C65   1.412       .  A
C65         C637   1.483       .  S
C65          C66   1.413       .  A
C66         C577   1.493       .  S
O67         Cu75   2.001   1_545  S
O67          C77   1.278       .  A
O68         Cu75   1.996       .  S
O68          C78   1.276       .  A
O69         Cu75   2.011   1_545  S
O69          C79   1.277       .  A
O70         Cu75   2.004       .  S
O70          C80   1.279       .  A
O71         Cu76   2.006       .  S
O71          C80   1.276       .  A
O72         Cu76   2.007   1_545  S
O72          C79   1.278       .  A
O73         Cu76   2.014       .  S
O73          C78   1.278       .  A
O74         Cu76   2.016   1_545  S
O74          C77   1.278       .  A
Cu75        Cu76   2.366       .  S
C77         C548   1.489       .  S
C78         C557   1.473       .  S
C79         C988   1.490       .  S
C80         C657   1.488       .  S
O81         Cu89   2.022   1_556  S
O81          C91   1.279       .  A
O82         Cu89   2.012       .  S
O82          C92   1.279       .  A
O83         Cu89   1.995   1_556  S
O83          C93   1.275       .  A
O84         Cu89   1.998       .  S
O84          C94   1.275       .  A
O85         Cu90   2.023   1_554  S
O85          C94   1.279       .  A
O86         Cu90   2.016       .  S
O86          C93   1.279       .  A
O87         Cu90   2.009   1_554  S
O87          C92   1.277       .  A
O88         Cu90   2.007       .  S
O88          C91   1.278       .  A
Cu89        Cu90   2.370   1_554  S
C91         C508   1.491       .  S
C92         C528   1.480       .  S
C93         C648   1.478       .  S
C94        C1068   1.473       .  S
O95        Cu103   2.009   1_554  S
O95         C105   1.277       .  A
O96        Cu103   2.008       .  S
O96         C106   1.277       .  A
O97        Cu103   2.009   1_554  S
O97         C107   1.277       .  A
O98        Cu103   2.002       .  S
O98         C108   1.277       .  A
O99        Cu104   2.011       .  S
O99         C108   1.277       .  A
O100       Cu104   2.018   1_554  S
O100        C107   1.280       .  A
O101       Cu104   2.024       .  S
O101        C106   1.279       .  A
O102       Cu104   2.012   1_554  S
O102        C105   1.278       .  A
Cu103      Cu104   2.372       .  S
C105        C457   1.473       .  S
C106        C488   1.476       .  S
C107        C808   1.494       .  S
C108        C968   1.470       .  S
C109        C708   1.486       .  S
C109        C110   1.416       .  A
C109        C114   1.415       .  A
C110        C417   1.488       .  S
C110        C111   1.418       .  A
C111        C477   1.493       .  S
C111        C112   1.417       .  A
C112        C397   1.486       .  S
C112        C113   1.414       .  A
C113        C568   1.487       .  S
C113        C114   1.414       .  A
C114        C437   1.491       .  S
O115       Cu123   2.013       .  S
O115        C125   1.279       .  A
O116       Cu123   2.022   1_545  S
O116        C126   1.281       .  A
O117       Cu123   2.016       .  S
O117        C127   1.279       .  A
O118       Cu123   2.008   1_545  S
O118        C128   1.277       .  A
O119       Cu124   2.009   1_545  S
O119        C128   1.277       .  A
O120       Cu124   2.011       .  S
O120        C127   1.277       .  A
O121       Cu124   2.001   1_545  S
O121        C126   1.275       .  A
O122       Cu124   1.999       .  S
O122        C125   1.275       .  A
Cu123      Cu124   2.366       .  S
C125        C448   1.489       .  S
C126        C377   1.493       .  S
C127        C777   1.487       .  S
C128        C937   1.468       .  S
C129        C357   1.489       .  S
C129        C130   1.413       .  A
C129        C134   1.416       .  A
C130       C1108   1.491       .  S
C130        C131   1.417       .  A
C131        C388   1.490       .  S
C131        C132   1.420       .  A
C132        C868   1.495       .  S
C132        C133   1.418       .  A
C133        C337   1.491       .  S
C133        C134   1.419       .  A
C134        C468   1.491       .  S
O135       Cu143   2.029       .  S
O135        C145   1.281       .  A
O136       Cu143   2.027   1_655  S
O136        C146   1.280       .  A
O137       Cu143   1.998       .  S
O137        C147   1.275       .  A
O138       Cu143   1.997   1_655  S
O138        C148   1.275       .  A
O139       Cu144   2.022       .  S
O139        C148   1.281       .  A
O140       Cu144   2.028   1_455  S
O140        C147   1.281       .  A
O141       Cu144   2.000       .  S
O141        C146   1.277       .  A
O142       Cu144   2.005   1_455  S
O142        C145   1.276       .  A
Cu143      Cu144   2.366   1_455  S
C145        C317   1.492       .  S
C146        C368   1.483       .  S
C147       C1028   1.488       .  S
C148        C757   1.485       .  S
C149        C837   1.494       .  S
C149        C150   1.415       .  A
C149        C154   1.413       .  A
C150        C308   1.486       .  S
C150        C151   1.421       .  A
C151        C688   1.489       .  S
C151        C152   1.418       .  A
C152        C328   1.495       .  S
C152        C153   1.416       .  A
C153        C517   1.486       .  S
C153        C154   1.416       .  A
C154        C288   1.485       .  S
O155       Cu163   2.017       .  S
O155        C165   1.278       .  A
O156       Cu163   2.011   1_565  S
O156        C166   1.277       .  A
O157       Cu163   2.022       .  S
O157        C167   1.280       .  A
O158       Cu163   2.014   1_565  S
O158        C168   1.279       .  A
O159       Cu164   2.006   1_565  S
O159        C168   1.277       .  A
O160       Cu164   1.999       .  S
O160        C167   1.275       .  A
O161       Cu164   2.000   1_565  S
O161        C166   1.278       .  A
O162       Cu164   2.005       .  S
O162        C165   1.276       .  A
Cu163      Cu164   2.367       .  S
C165        C257   1.472       .  S
C166        C297   1.488       .  S
C167       C1037   1.491       .  S
C168        C617   1.484       .  S
C169        C537   1.494       .  S
C169        C170   1.423       .  A
C169        C174   1.420       .  A
C170        C268   1.496       .  S
C170        C171   1.420       .  A
C171       C1128   1.492       .  S
C171        C172   1.415       .  A
C172        C248   1.484       .  S
C172        C173   1.412       .  A
C173        C497   1.492       .  S
C173        C174   1.412       .  A
C174        C217   1.486       .  S
O175       Cu183   2.015   1_655  S
O175        C185   1.277       .  A
O176       Cu183   2.007       .  S
O176        C186   1.277       .  A
O177       Cu183   2.015   1_655  S
O177        C187   1.277       .  A
O178       Cu183   2.012       .  S
O178        C188   1.280       .  A
O179       Cu184   2.000   1_455  S
O179        C188   1.275       .  A
O180       Cu184   2.009       .  S
O180        C187   1.279       .  A
O181       Cu184   2.004   1_455  S
O181        C186   1.277       .  A
O182       Cu184   2.012       .  S
O182        C185   1.279       .  A
Cu183      Cu184   2.367   1_455  S
C185        C428   1.490       .  S
C186        C237   1.467       .  S
C187        C928   1.489       .  S
C188        C608   1.490       .  S
O189       Cu197   2.032   1_556  S
O189        C199   1.280       .  A
O190       Cu197   2.029       .  S
O190        C200   1.281       .  A
O191       Cu197   2.004   1_556  S
O191        C201   1.276       .  A
O192       Cu197   1.999       .  S
O192        C202   1.275       .  A
O193       Cu198   2.015   1_554  S
O193        C202   1.280       .  A
O194       Cu198   2.016       .  S
O194        C201   1.278       .  A
O195       Cu198   1.990   1_554  S
O195        C200   1.275       .  A
O196       Cu198   1.995       .  S
O196        C199   1.277       .  A
Cu197      Cu198   2.367   1_554  S
C199        C897   1.491       .  S
C200        C997   1.484       .  S
C201        C228   1.471       .  S
C202        C348   1.489       .  S
O203       Cu211   2.006   1_554  S
O203        C213   1.277       .  A
O204       Cu211   2.005       .  S
O204        C214   1.276       .  A
O205       Cu211   2.014   1_554  S
O205        C215   1.280       .  A
O206       Cu211   2.016       .  S
O206        C216   1.279       .  A
O207       Cu212   2.004       .  S
O207        C216   1.277       .  A
O208       Cu212   1.999   1_554  S
O208        C215   1.275       .  A
O209       Cu212   2.017       .  S
O209        C214   1.279       .  A
O210       Cu212   2.016   1_554  S
O210        C213   1.278       .  A
Cu211      Cu212   2.371       .  S
C213        C737   1.473       .  S
C214        C588   1.472       .  S
C215        C277   1.486       .  S
C216        C408   1.482       .  S
C217        C218   1.408       .  A
C217        C222   1.401       .  A
C218        C219   1.399       .  A
C218       Br234   1.915       .  S
C219        C220   1.402       .  A
C219        H223   1.083       .  S
C220        C224   1.477       .  S
C220        C221   1.408       .  A
C221        C222   1.397       .  A
C221       Br233   1.918       .  S
C222        H225   1.083       .  S
C224        C226   1.402       .  A
C224        C230   1.408       .  A
C226        C227   1.398       .  A
C226        H231   1.084       .  S
C227        C228   1.409       .  A
C227       Br235   1.917       .  S
C228        C229   1.402       .  A
C229        C230   1.400       .  A
C229        H232   1.084       .  S
C230       Br236   1.918       .  S
C237        C238   1.409       .  A
C237        C242   1.401       .  A
C238        C239   1.399       .  A
C238       Br254   1.920       .  S
C239        C240   1.402       .  A
C239        H243   1.084       .  S
C240        C244   1.473       .  S
C240        C241   1.407       .  A
C241        C242   1.398       .  A
C241       Br253   1.919       .  S
C242        H245   1.084       .  S
C244        C246   1.402       .  A
C244        C250   1.407       .  A
C246        C247   1.397       .  A
C246        H251   1.083       .  S
C247        C248   1.409       .  A
C247       Br255   1.918       .  S
C248        C249   1.402       .  A
C249        C250   1.397       .  A
C249        H252   1.082       .  S
C250       Br256   1.917       .  S
C257        C258   1.409       .  A
C257        C262   1.404       .  A
C258        C259   1.400       .  A
C258       Br274   1.919       .  S
C259        C260   1.402       .  A
C259        H263   1.084       .  S
C260        C264   1.476       .  S
C260        C261   1.407       .  A
C261        C262   1.400       .  A
C261       Br273   1.919       .  S
C262        H265   1.084       .  S
C264        C266   1.400       .  A
C264        C270   1.405       .  A
C266        C267   1.399       .  A
C266        H271   1.083       .  S
C267        C268   1.415       .  A
C267       Br275   1.918       .  S
C268        C269   1.406       .  A
C269        C270   1.397       .  A
C269        H272   1.083       .  S
C270       Br276   1.917       .  S
C277        C278   1.419       .  A
C277        C282   1.408       .  A
C278        C279   1.397       .  A
C278       Br294   1.922       .  S
C279        C280   1.399       .  A
C279        H283   1.084       .  S
C280        C284   1.476       .  S
C280        C281   1.407       .  A
C281        C282   1.398       .  A
C281       Br293   1.921       .  S
C282        H285   1.083       .  S
C284        C286   1.403       .  A
C284        C290   1.407       .  A
C286        C287   1.398       .  A
C286        H291   1.084       .  S
C287        C288   1.410       .  A
C287       Br295   1.916       .  S
C288        C289   1.401       .  A
C289        C290   1.394       .  A
C289        H292   1.082       .  S
C290       Br296   1.919       .  S
C297        C298   1.419       .  A
C297        C302   1.410       .  A
C298        C299   1.400       .  A
C298       Br314   1.922       .  S
C299        C300   1.399       .  A
C299        H303   1.084       .  S
C300        C304   1.472       .  S
C300        C301   1.402       .  A
C301        C302   1.395       .  A
C301       Br313   1.918       .  S
C302        H305   1.083       .  S
C304        C306   1.400       .  A
C304        C310   1.405       .  A
C306        C307   1.398       .  A
C306        H311   1.083       .  S
C307        C308   1.411       .  A
C307       Br315   1.917       .  S
C308        C309   1.403       .  A
C309        C310   1.396       .  A
C309        H312   1.082       .  S
C310       Br316   1.918       .  S
C317        C318   1.420       .  A
C317        C322   1.408       .  A
C318        C319   1.402       .  A
C318       Br334   1.922       .  S
C319        C320   1.400       .  A
C319        H323   1.083       .  S
C320        C324   1.481       .  S
C320        C321   1.406       .  A
C321        C322   1.401       .  A
C321       Br333   1.919       .  S
C322        H325   1.083       .  S
C324        C326   1.402       .  A
C324        C330   1.407       .  A
C326        C327   1.402       .  A
C326        H331   1.083       .  S
C327        C328   1.412       .  A
C327       Br335   1.912       .  S
C328        C329   1.403       .  A
C329        C330   1.398       .  A
C329        H332   1.083       .  S
C330       Br336   1.917       .  S
C337        C338   1.410       .  A
C337        C342   1.405       .  A
C338        C339   1.398       .  A
C338       Br354   1.917       .  S
C339        C340   1.401       .  A
C339        H343   1.083       .  S
C340        C344   1.475       .  S
C340        C341   1.407       .  A
C341        C342   1.396       .  A
C341       Br353   1.919       .  S
C342        H345   1.083       .  S
C344        C346   1.399       .  A
C344        C350   1.405       .  A
C346        C347   1.400       .  A
C346        H351   1.084       .  S
C347        C348   1.421       .  A
C347       Br355   1.923       .  S
C348        C349   1.408       .  A
C349        C350   1.397       .  A
C349        H352   1.083       .  S
C350       Br356   1.920       .  S
C357        C358   1.409       .  A
C357        C362   1.402       .  A
C358        C359   1.400       .  A
C358       Br374   1.916       .  S
C359        C360   1.402       .  A
C359        H363   1.083       .  S
C360        C364   1.476       .  S
C360        C361   1.406       .  A
C361        C362   1.396       .  A
C361       Br373   1.917       .  S
C362        H365   1.082       .  S
C364        C366   1.402       .  A
C364        C370   1.404       .  A
C366        C367   1.402       .  A
C366        H371   1.084       .  S
C367        C368   1.413       .  A
C367       Br375   1.918       .  S
C368        C369   1.408       .  A
C369        C370   1.398       .  A
C369        H372   1.083       .  S
C370       Br376   1.919       .  S
C377        C378   1.422       .  A
C377        C382   1.410       .  A
C378        C379   1.400       .  A
C378       Br394   1.923       .  S
C379        C380   1.398       .  A
C379        H383   1.084       .  S
C380        C384   1.476       .  S
C380        C381   1.405       .  A
C381        C382   1.399       .  A
C381       Br393   1.919       .  S
C382        H385   1.083       .  S
C384        C386   1.401       .  A
C384        C390   1.406       .  A
C386        C387   1.397       .  A
C386        H391   1.084       .  S
C387        C388   1.411       .  A
C387       Br395   1.917       .  S
C388        C389   1.405       .  A
C389        C390   1.398       .  A
C389        H392   1.082       .  S
C390       Br396   1.918       .  S
C397        C398   1.408       .  A
C397        C402   1.403       .  A
C398        C399   1.398       .  A
C398       Br414   1.916       .  S
C399        C400   1.401       .  A
C399        H403   1.083       .  S
C400        C404   1.475       .  S
C400        C401   1.407       .  A
C401        C402   1.399       .  A
C401       Br413   1.917       .  S
C402        H405   1.082       .  S
C404        C406   1.401       .  A
C404        C410   1.405       .  A
C406        C407   1.400       .  A
C406        H411   1.084       .  S
C407        C408   1.414       .  A
C407       Br415   1.921       .  S
C408        C409   1.407       .  A
C409        C410   1.398       .  A
C409        H412   1.083       .  S
C410       Br416   1.920       .  S
C417        C418   1.409       .  A
C417        C422   1.403       .  A
C418        C419   1.400       .  A
C418       Br434   1.918       .  S
C419        C420   1.402       .  A
C419        H423   1.083       .  S
C420        C424   1.477       .  S
C420        C421   1.406       .  A
C421        C422   1.397       .  A
C421       Br433   1.918       .  S
C422        H425   1.081       .  S
C424        C426   1.400       .  A
C424        C430   1.404       .  A
C426        C427   1.402       .  A
C426        H431   1.084       .  S
C427        C428   1.419       .  A
C427       Br435   1.921       .  S
C428        C429   1.409       .  A
C429        C430   1.398       .  A
C429        H432   1.083       .  S
C430       Br436   1.918       .  S
C437        C438   1.410       .  A
C437        C442   1.404       .  A
C438        C439   1.398       .  A
C438       Br454   1.916       .  S
C439        C440   1.403       .  A
C439        H443   1.084       .  S
C440        C444   1.479       .  S
C440        C441   1.408       .  A
C441        C442   1.398       .  A
C441       Br453   1.918       .  S
C442        H445   1.082       .  S
C444        C446   1.399       .  A
C444        C450   1.407       .  A
C446        C447   1.397       .  A
C446        H451   1.084       .  S
C447        C448   1.419       .  A
C447       Br455   1.923       .  S
C448        C449   1.410       .  A
C449        C450   1.400       .  A
C449        H452   1.083       .  S
C450       Br456   1.919       .  S
C457        C458   1.410       .  A
C457        C462   1.403       .  A
C458        C459   1.399       .  A
C458       Br474   1.919       .  S
C459        C460   1.401       .  A
C459        H463   1.083       .  S
C460        C464   1.474       .  S
C460        C461   1.406       .  A
C461        C462   1.399       .  A
C461       Br473   1.919       .  S
C462        H465   1.083       .  S
C464        C466   1.401       .  A
C464        C470   1.404       .  A
C466        C467   1.399       .  A
C466        H471   1.083       .  S
C467        C468   1.411       .  A
C467       Br475   1.917       .  S
C468        C469   1.405       .  A
C469        C470   1.396       .  A
C469        H472   1.082       .  S
C470       Br476   1.917       .  S
C477        C478   1.410       .  A
C477        C482   1.405       .  A
C478        C479   1.400       .  A
C478       Br494   1.916       .  S
C479        C480   1.403       .  A
C479        H483   1.083       .  S
C480        C484   1.482       .  S
C480        C481   1.407       .  A
C481        C482   1.400       .  A
C481       Br493   1.917       .  S
C482        H485   1.082       .  S
C484        C486   1.403       .  A
C484        C490   1.409       .  A
C486        C487   1.401       .  A
C486        H491   1.083       .  S
C487        C488   1.408       .  A
C487       Br495   1.918       .  S
C488        C489   1.405       .  A
C489        C490   1.402       .  A
C489        H492   1.084       .  S
C490       Br496   1.918       .  S
C497        C498   1.409       .  A
C497        C502   1.403       .  A
C498        C499   1.401       .  A
C498       Br514   1.918       .  S
C499        C500   1.403       .  A
C499        H503   1.083       .  S
C500        C504   1.480       .  S
C500        C501   1.407       .  A
C501        C502   1.399       .  A
C501       Br513   1.918       .  S
C502        H505   1.081       .  S
C504        C506   1.402       .  A
C504        C510   1.404       .  A
C506        C507   1.404       .  A
C506        H511   1.084       .  S
C507        C508   1.419       .  A
C507       Br515   1.921       .  S
C508        C509   1.409       .  A
C509        C510   1.398       .  A
C509        H512   1.083       .  S
C510       Br516   1.918       .  S
C517        C518   1.409       .  A
C517        C522   1.403       .  A
C518        C519   1.397       .  A
C518       Br534   1.915       .  S
C519        C520   1.401       .  A
C519        H523   1.084       .  S
C520        C524   1.474       .  S
C520        C521   1.406       .  A
C521        C522   1.397       .  A
C521       Br533   1.918       .  S
C522        H525   1.082       .  S
C524        C526   1.401       .  A
C524        C530   1.406       .  A
C526        C527   1.400       .  A
C526        H531   1.084       .  S
C527        C528   1.415       .  A
C527       Br535   1.921       .  S
C528        C529   1.405       .  A
C529        C530   1.397       .  A
C529        H532   1.083       .  S
C530       Br536   1.920       .  S
C537        C538   1.412       .  A
C537        C542   1.405       .  A
C538        C539   1.400       .  A
C538       Br554   1.917       .  S
C539        C540   1.401       .  A
C539        H543   1.083       .  S
C540        C544   1.474       .  S
C540        C541   1.404       .  A
C541        C542   1.395       .  A
C541       Br553   1.918       .  S
C542        H545   1.082       .  S
C544        C546   1.400       .  A
C544        C550   1.403       .  A
C546        C547   1.401       .  A
C546        H551   1.084       .  S
C547        C548   1.419       .  A
C547       Br555   1.922       .  S
C548        C549   1.410       .  A
C549        C550   1.397       .  A
C549        H552   1.083       .  S
C550       Br556   1.920       .  S
C557        C558   1.412       .  A
C557        C562   1.404       .  A
C558        C559   1.397       .  A
C558       Br574   1.921       .  S
C559        C560   1.399       .  A
C559        H563   1.084       .  S
C560        C564   1.472       .  S
C560        C561   1.406       .  A
C561        C562   1.399       .  A
C561       Br573   1.917       .  S
C562        H565   1.083       .  S
C564        C566   1.402       .  A
C564        C570   1.405       .  A
C566        C567   1.399       .  A
C566        H571   1.083       .  S
C567        C568   1.409       .  A
C567       Br575   1.918       .  S
C568        C569   1.401       .  A
C569        C570   1.395       .  A
C569        H572   1.080       .  S
C570       Br576   1.918       .  S
C577        C578   1.412       .  A
C577        C582   1.403       .  A
C578        C579   1.402       .  A
C578       Br594   1.917       .  S
C579        C580   1.402       .  A
C579        H583   1.083       .  S
C580        C584   1.476       .  S
C580        C581   1.404       .  A
C581        C582   1.395       .  A
C581       Br593   1.918       .  S
C582        H585   1.080       .  S
C584        C586   1.402       .  A
C584        C590   1.408       .  A
C586        C587   1.400       .  A
C586        H591   1.083       .  S
C587        C588   1.409       .  A
C587       Br595   1.918       .  S
C588        C589   1.403       .  A
C589        C590   1.399       .  A
C589        H592   1.084       .  S
C590       Br596   1.918       .  S
C597        C598   1.408       .  A
C597        C602   1.400       .  A
C598        C599   1.396       .  A
C598       Br614   1.919       .  S
C599        C600   1.403       .  A
C599        H603   1.083       .  S
C600        C604   1.479       .  S
C600        C601   1.410       .  A
C601        C602   1.397       .  A
C601       Br613   1.919       .  S
C602        H605   1.082       .  S
C604        C606   1.401       .  A
C604        C610   1.406       .  A
C606        C607   1.400       .  A
C606        H611   1.084       .  S
C607        C608   1.421       .  A
C607       Br615   1.923       .  S
C608        C609   1.408       .  A
C609        C610   1.396       .  A
C609        H612   1.083       .  S
C610       Br616   1.920       .  S
C617        C618   1.417       .  A
C617        C622   1.408       .  A
C618        C619   1.399       .  A
C618       Br634   1.922       .  S
C619        C620   1.399       .  A
C619        H623   1.084       .  S
C620        C624   1.474       .  S
C620        C621   1.405       .  A
C621        C622   1.400       .  A
C621       Br633   1.919       .  S
C622        H625   1.083       .  S
C624        C626   1.402       .  A
C624        C630   1.406       .  A
C626        C627   1.400       .  A
C626        H631   1.083       .  S
C627        C628   1.409       .  A
C627       Br635   1.916       .  S
C628        C629   1.402       .  A
C629        C630   1.396       .  A
C629        H632   1.082       .  S
C630       Br636   1.918       .  S
C637        C638   1.408       .  A
C637        C642   1.401       .  A
C638        C639   1.399       .  A
C638       Br654   1.917       .  S
C639        C640   1.402       .  A
C639        H643   1.083       .  S
C640        C644   1.470       .  S
C640        C641   1.405       .  A
C641        C642   1.393       .  A
C641       Br653   1.918       .  S
C642        H645   1.081       .  S
C644        C646   1.398       .  A
C644        C650   1.405       .  A
C646        C647   1.397       .  A
C646        H651   1.084       .  S
C647        C648   1.416       .  A
C647       Br655   1.921       .  S
C648        C649   1.406       .  A
C649        C650   1.398       .  A
C649        H652   1.083       .  S
C650       Br656   1.920       .  S
C657        C658   1.420       .  A
C657        C662   1.409       .  A
C658        C659   1.399       .  A
C658       Br674   1.922       .  S
C659        C660   1.398       .  A
C659        H663   1.084       .  S
C660        C664   1.473       .  S
C660        C661   1.405       .  A
C661        C662   1.395       .  A
C661       Br673   1.920       .  S
C662        H665   1.083       .  S
C664        C666   1.401       .  A
C664        C670   1.406       .  A
C666        C667   1.398       .  A
C666        H671   1.083       .  S
C667        C668   1.411       .  A
C667       Br675   1.917       .  S
C668        C669   1.402       .  A
C669        C670   1.394       .  A
C669        H672   1.081       .  S
C670       Br676   1.919       .  S
C677        C678   1.409       .  A
C677        C682   1.403       .  A
C678        C679   1.399       .  A
C678       Br694   1.917       .  S
C679        C680   1.401       .  A
C679        H683   1.083       .  S
C680        C684   1.473       .  S
C680        C681   1.407       .  A
C681        C682   1.399       .  A
C681       Br693   1.917       .  S
C682        H685   1.084       .  S
C684        C686   1.402       .  A
C684        C690   1.404       .  A
C686        C687   1.401       .  A
C686        H691   1.083       .  S
C687        C688   1.412       .  A
C687       Br695   1.917       .  S
C688        C689   1.403       .  A
C689        C690   1.394       .  A
C689        H692   1.083       .  S
C690       Br696   1.917       .  S
C697        C698   1.418       .  A
C697        C702   1.408       .  A
C698        C699   1.400       .  A
C698       Br714   1.922       .  S
C699        C700   1.401       .  A
C699        H703   1.084       .  S
C700        C704   1.477       .  S
C700        C701   1.405       .  A
C701        C702   1.397       .  A
C701       Br713   1.920       .  S
C702        H705   1.083       .  S
C704        C706   1.403       .  A
C704        C710   1.407       .  A
C706        C707   1.400       .  A
C706        H711   1.083       .  S
C707        C708   1.409       .  A
C707       Br715   1.915       .  S
C708        C709   1.401       .  A
C709        C710   1.395       .  A
C709        H712   1.082       .  S
C710       Br716   1.918       .  S
C717        C718   1.410       .  A
C717        C722   1.402       .  A
C718        C719   1.402       .  A
C718       Br734   1.918       .  S
C719        C720   1.403       .  A
C719        H723   1.083       .  S
C720        C724   1.478       .  S
C720        C721   1.407       .  A
C721        C722   1.397       .  A
C721       Br733   1.917       .  S
C722        H725   1.082       .  S
C724        C726   1.400       .  A
C724        C730   1.407       .  A
C726        C727   1.399       .  A
C726        H731   1.084       .  S
C727        C728   1.413       .  A
C727       Br735   1.920       .  S
C728        C729   1.406       .  A
C729        C730   1.402       .  A
C729        H732   1.084       .  S
C730       Br736   1.918       .  S
C737        C738   1.410       .  A
C737        C742   1.404       .  A
C738        C739   1.398       .  A
C738       Br754   1.920       .  S
C739        C740   1.401       .  A
C739        H743   1.084       .  S
C740        C744   1.476       .  S
C740        C741   1.408       .  A
C741        C742   1.401       .  A
C741       Br753   1.917       .  S
C742        H745   1.084       .  S
C744        C746   1.400       .  A
C744        C750   1.405       .  A
C746        C747   1.399       .  A
C746        H751   1.084       .  S
C747        C748   1.413       .  A
C747       Br755   1.917       .  S
C748        C749   1.405       .  A
C749        C750   1.398       .  A
C749        H752   1.082       .  S
C750       Br756   1.917       .  S
C757        C758   1.418       .  A
C757        C762   1.408       .  A
C758        C759   1.399       .  A
C758       Br774   1.923       .  S
C759        C760   1.398       .  A
C759        H763   1.083       .  S
C760        C764   1.474       .  S
C760        C761   1.405       .  A
C761        C762   1.399       .  A
C761       Br773   1.919       .  S
C762        H765   1.083       .  S
C764        C766   1.400       .  A
C764        C770   1.406       .  A
C766        C767   1.396       .  A
C766        H771   1.084       .  S
C767        C768   1.408       .  A
C767       Br775   1.911       .  S
C768        C769   1.405       .  A
C769        C770   1.399       .  A
C769        H772   1.083       .  S
C770       Br776   1.917       .  S
C777        C778   1.417       .  A
C777        C782   1.407       .  A
C778        C779   1.401       .  A
C778       Br794   1.922       .  S
C779        C780   1.400       .  A
C779        H783   1.084       .  S
C780        C784   1.480       .  S
C780        C781   1.406       .  A
C781        C782   1.400       .  A
C781       Br793   1.917       .  S
C782        H785   1.083       .  S
C784        C786   1.402       .  A
C784        C790   1.406       .  A
C786        C787   1.403       .  A
C786        H791   1.083       .  S
C787        C788   1.412       .  A
C787       Br795   1.918       .  S
C788        C789   1.403       .  A
C789        C790   1.397       .  A
C789        H792   1.081       .  S
C790       Br796   1.918       .  S
C797        C798   1.411       .  A
C797        C802   1.405       .  A
C798        C799   1.400       .  A
C798       Br814   1.916       .  S
C799        C800   1.402       .  A
C799        H803   1.083       .  S
C800        C804   1.480       .  S
C800        C801   1.406       .  A
C801        C802   1.399       .  A
C801       Br813   1.918       .  S
C802        H805   1.081       .  S
C804        C806   1.399       .  A
C804        C810   1.406       .  A
C806        C807   1.400       .  A
C806        H811   1.083       .  S
C807        C808   1.421       .  A
C807       Br815   1.922       .  S
C808        C809   1.410       .  A
C809        C810   1.401       .  A
C809        H812   1.083       .  S
C810       Br816   1.919       .  S
C817        C818   1.413       .  A
C817        C822   1.405       .  A
C818        C819   1.401       .  A
C818       Br834   1.920       .  S
C819        C820   1.401       .  A
C819        H823   1.084       .  S
C820        C824   1.478       .  S
C820        C821   1.407       .  A
C821        C822   1.401       .  A
C821       Br833   1.919       .  S
C822        H825   1.082       .  S
C824        C826   1.401       .  A
C824        C830   1.406       .  A
C826        C827   1.401       .  A
C826        H831   1.083       .  S
C827        C828   1.414       .  A
C827       Br835   1.918       .  S
C828        C829   1.404       .  A
C829        C830   1.398       .  A
C829        H832   1.082       .  S
C830       Br836   1.917       .  S
C837        C838   1.411       .  A
C837        C842   1.404       .  A
C838        C839   1.400       .  A
C838       Br854   1.910       .  S
C839        C840   1.400       .  A
C839        H843   1.084       .  S
C840        C844   1.479       .  S
C840        C841   1.407       .  A
C841        C842   1.399       .  A
C841       Br853   1.917       .  S
C842        H845   1.083       .  S
C844        C846   1.404       .  A
C844        C850   1.407       .  A
C846        C847   1.402       .  A
C846        H851   1.083       .  S
C847        C848   1.410       .  A
C847       Br855   1.920       .  S
C848        C849   1.404       .  A
C849        C850   1.399       .  A
C849        H852   1.084       .  S
C850       Br856   1.920       .  S
C857        C858   1.412       .  A
C857        C862   1.404       .  A
C858        C859   1.403       .  A
C858       Br874   1.920       .  S
C859        C860   1.403       .  A
C859        H863   1.084       .  S
C860        C864   1.478       .  S
C860        C861   1.406       .  A
C861        C862   1.399       .  A
C861       Br873   1.918       .  S
C862        H865   1.084       .  S
C864        C866   1.402       .  A
C864        C870   1.405       .  A
C866        C867   1.402       .  A
C866        H871   1.083       .  S
C867        C868   1.411       .  A
C867       Br875   1.918       .  S
C868        C869   1.405       .  A
C869        C870   1.397       .  A
C869        H872   1.082       .  S
C870       Br876   1.917       .  S
C877        C878   1.414       .  A
C877        C882   1.408       .  A
C878        C879   1.400       .  A
C878       Br894   1.921       .  S
C879        C880   1.400       .  A
C879        H883   1.082       .  S
C880        C884   1.475       .  S
C880        C881   1.405       .  A
C881        C882   1.399       .  A
C881       Br893   1.919       .  S
C882        H885   1.083       .  S
C884        C886   1.401       .  A
C884        C890   1.406       .  A
C886        C887   1.398       .  A
C886        H891   1.084       .  S
C887        C888   1.408       .  A
C887       Br895   1.911       .  S
C888        C889   1.405       .  A
C889        C890   1.399       .  A
C889        H892   1.083       .  S
C890       Br896   1.917       .  S
C897        C898   1.418       .  A
C897        C902   1.409       .  A
C898        C899   1.406       .  A
C898       Br914   1.920       .  S
C899        C900   1.404       .  A
C899        H903   1.084       .  S
C900        C904   1.482       .  S
C900        C901   1.405       .  A
C901        C902   1.394       .  A
C901       Br913   1.922       .  S
C902        H905   1.083       .  S
C904        C906   1.402       .  A
C904        C910   1.408       .  A
C906        C907   1.398       .  A
C906        H911   1.083       .  S
C907        C908   1.409       .  A
C907       Br915   1.913       .  S
C908        C909   1.404       .  A
C909        C910   1.401       .  A
C909        H912   1.083       .  S
C910       Br916   1.918       .  S
C917        C918   1.409       .  A
C917        C922   1.403       .  A
C918        C919   1.401       .  A
C918       Br934   1.917       .  S
C919        C920   1.405       .  A
C919        H923   1.083       .  S
C920        C924   1.486       .  S
C920        C921   1.409       .  A
C921        C922   1.398       .  A
C921       Br933   1.919       .  S
C922        H925   1.080       .  S
C924        C926   1.404       .  A
C924        C930   1.407       .  A
C926        C927   1.404       .  A
C926        H931   1.084       .  S
C927        C928   1.418       .  A
C927       Br935   1.921       .  S
C928        C929   1.405       .  A
C929        C930   1.396       .  A
C929        H932   1.083       .  S
C930       Br936   1.915       .  S
C937        C938   1.407       .  A
C937        C942   1.403       .  A
C938        C939   1.397       .  A
C938       Br954   1.919       .  S
C939        C940   1.402       .  A
C939        H943   1.084       .  S
C940        C944   1.473       .  S
C940        C941   1.408       .  A
C941        C942   1.399       .  A
C941       Br953   1.919       .  S
C942        H945   1.084       .  S
C944        C946   1.400       .  A
C944        C950   1.406       .  A
C946        C947   1.396       .  A
C946        H951   1.084       .  S
C947        C948   1.410       .  A
C947       Br955   1.916       .  S
C948        C949   1.404       .  A
C949        C950   1.397       .  A
C949        H952   1.083       .  S
C950       Br956   1.917       .  S
C957        C958   1.409       .  A
C957        C962   1.402       .  A
C958        C959   1.397       .  A
C958       Br974   1.917       .  S
C959        C960   1.403       .  A
C959        H963   1.083       .  S
C960        C964   1.484       .  S
C960        C961   1.412       .  A
C961        C962   1.398       .  A
C961       Br973   1.920       .  S
C962        H965   1.083       .  S
C964        C966   1.405       .  A
C964        C970   1.412       .  A
C966        C967   1.400       .  A
C966        H971   1.084       .  S
C967        C968   1.408       .  A
C967       Br975   1.918       .  S
C968        C969   1.400       .  A
C969        C970   1.396       .  A
C969        H972   1.084       .  S
C970       Br976   1.916       .  S
C977        C978   1.409       .  A
C977        C982   1.402       .  A
C978        C979   1.401       .  A
C978       Br994   1.917       .  S
C979        C980   1.403       .  A
C979        H983   1.083       .  S
C980        C984   1.475       .  S
C980        C981   1.405       .  A
C981        C982   1.395       .  A
C981       Br993   1.918       .  S
C982        H985   1.080       .  S
C984        C986   1.399       .  A
C984        C990   1.404       .  A
C986        C987   1.400       .  A
C986        H991   1.084       .  S
C987        C988   1.420       .  A
C987       Br995   1.922       .  S
C988        C989   1.410       .  A
C989        C990   1.398       .  A
C989        H992   1.083       .  S
C990       Br996   1.920       .  S
C997        C998   1.413       .  A
C997       C1002   1.409       .  A
C998        C999   1.399       .  A
C998      Br1014   1.920       .  S
C999       C1000   1.400       .  A
C999       H1003   1.082       .  S
C1000      C1004   1.478       .  S
C1000      C1001   1.404       .  A
C1001      C1002   1.399       .  A
C1001     Br1013   1.915       .  S
C1002      H1005   1.084       .  S
C1004      C1006   1.403       .  A
C1004      C1010   1.407       .  A
C1006      C1007   1.402       .  A
C1006      H1011   1.082       .  S
C1007      C1008   1.411       .  A
C1007     Br1015   1.917       .  S
C1008      C1009   1.401       .  A
C1009      C1010   1.396       .  A
C1009      H1012   1.080       .  S
C1010     Br1016   1.918       .  S
C1017      C1018   1.410       .  A
C1017      C1022   1.404       .  A
C1018      C1019   1.398       .  A
C1018     Br1034   1.912       .  S
C1019      C1020   1.400       .  A
C1019      H1023   1.083       .  S
C1020      C1024   1.475       .  S
C1020      C1021   1.405       .  A
C1021      C1022   1.397       .  A
C1021     Br1033   1.917       .  S
C1022      H1025   1.083       .  S
C1024      C1026   1.398       .  A
C1024      C1030   1.405       .  A
C1026      C1027   1.399       .  A
C1026      H1031   1.084       .  S
C1027      C1028   1.420       .  A
C1027     Br1035   1.922       .  S
C1028      C1029   1.408       .  A
C1029      C1030   1.400       .  A
C1029      H1032   1.083       .  S
C1030     Br1036   1.919       .  S
C1037      C1038   1.420       .  A
C1037      C1042   1.410       .  A
C1038      C1039   1.397       .  A
C1038     Br1054   1.923       .  S
C1039      C1040   1.399       .  A
C1039      H1043   1.083       .  S
C1040      C1044   1.479       .  S
C1040      C1041   1.406       .  A
C1041      C1042   1.402       .  A
C1041     Br1053   1.919       .  S
C1042      H1045   1.082       .  S
C1044      C1046   1.403       .  A
C1044      C1050   1.405       .  A
C1046      C1047   1.402       .  A
C1046      H1051   1.078       .  S
C1047      C1048   1.413       .  A
C1047     Br1055   1.918       .  S
C1048      C1049   1.407       .  A
C1049      C1050   1.396       .  A
C1049      H1052   1.075       .  S
C1050     Br1056   1.919       .  S
C1057      C1058   1.409       .  A
C1057      C1062   1.400       .  A
C1058      C1059   1.400       .  A
C1058     Br1074   1.916       .  S
C1059      C1060   1.404       .  A
C1059      H1063   1.083       .  S
C1060      C1064   1.487       .  S
C1060      C1061   1.413       .  A
C1061      C1062   1.398       .  A
C1061     Br1073   1.920       .  S
C1062      H1065   1.082       .  S
C1064      C1066   1.404       .  A
C1064      C1070   1.414       .  A
C1066      C1067   1.398       .  A
C1066      H1071   1.084       .  S
C1067      C1068   1.408       .  A
C1067     Br1075   1.919       .  S
C1068      C1069   1.401       .  A
C1069      C1070   1.401       .  A
C1069      H1072   1.084       .  S
C1070     Br1076   1.918       .  S
C1077      C1078   1.408       .  A
C1077      C1082   1.404       .  A
C1078      C1079   1.396       .  A
C1078     Br1094   1.912       .  S
C1079      C1080   1.401       .  A
C1079      H1083   1.085       .  S
C1080      C1084   1.474       .  S
C1080      C1081   1.407       .  A
C1081      C1082   1.396       .  A
C1081     Br1093   1.918       .  S
C1082      H1085   1.085       .  S
C1084      C1086   1.402       .  A
C1084      C1090   1.405       .  A
C1086      C1087   1.400       .  A
C1086      H1091   1.084       .  S
C1087      C1088   1.415       .  A
C1087     Br1095   1.921       .  S
C1088      C1089   1.405       .  A
C1089      C1090   1.394       .  A
C1089      H1092   1.083       .  S
C1090     Br1096   1.915       .  S
C1097      C1098   1.413       .  A
C1097      C1102   1.405       .  A
C1098      C1099   1.402       .  A
C1098     Br1114   1.920       .  S
C1099      C1100   1.403       .  A
C1099      H1103   1.084       .  S
C1100      C1104   1.479       .  S
C1100      C1101   1.407       .  A
C1101      C1102   1.399       .  A
C1101     Br1113   1.920       .  S
C1102      H1105   1.084       .  S
C1104      C1106   1.401       .  A
C1104      C1110   1.408       .  A
C1106      C1107   1.398       .  A
C1106      H1111   1.083       .  S
C1107      C1108   1.408       .  A
C1107     Br1115   1.915       .  S
C1108      C1109   1.404       .  A
C1109      C1110   1.400       .  A
C1109      H1112   1.082       .  S
C1110     Br1116   1.917       .  S
C1117      C1118   1.419       .  A
C1117      C1122   1.409       .  A
C1118      C1119   1.401       .  A
C1118     Br1134   1.922       .  S
C1119      C1120   1.402       .  A
C1119      H1123   1.084       .  S
C1120      C1124   1.486       .  S
C1120      C1121   1.409       .  A
C1121      C1122   1.400       .  A
C1121     Br1133   1.921       .  S
C1122      H1125   1.083       .  S
C1124      C1126   1.404       .  A
C1124      C1130   1.411       .  A
C1126      C1127   1.398       .  A
C1126      H1131   1.083       .  S
C1127      C1128   1.408       .  A
C1127     Br1135   1.912       .  S
C1128      C1129   1.404       .  A
C1129      C1130   1.399       .  A
C1129      H1132   1.082       .  S
C1130     Br1136   1.919       .  S
C1137      C1138   1.409       .  A
C1137      C1142   1.404       .  A
C1138      C1139   1.397       .  A
C1138     Br1154   1.914       .  S
C1139      C1140   1.400       .  A
C1139      H1143   1.083       .  S
C1140      C1144   1.473       .  S
C1140      C1141   1.406       .  A
C1141      C1142   1.398       .  A
C1141     Br1153   1.917       .  S
C1142      H1145   1.083       .  S
C1144      C1146   1.401       .  A
C1144      C1150   1.404       .  A
C1146      C1147   1.402       .  A
C1146      H1151   1.084       .  S
C1147      C1148   1.416       .  A
C1147     Br1155   1.921       .  S
C1148      C1149   1.407       .  A
C1149      C1150   1.396       .  A
C1149      H1152   1.083       .  S
C1150     Br1156   1.920       .  S
C1157      C1158   1.409       .  A
C1157      C1162   1.404       .  A
C1158      C1159   1.399       .  A
C1158     Br1174   1.920       .  S
C1159      C1160   1.401       .  A
C1159      H1163   1.084       .  S
C1160      C1164   1.477       .  S
C1160      C1161   1.408       .  A
C1161      C1162   1.401       .  A
C1161     Br1173   1.919       .  S
C1162      H1165   1.083       .  S
C1164      C1166   1.401       .  A
C1164      C1170   1.404       .  A
C1166      C1167   1.402       .  A
C1166      H1171   1.083       .  S
C1167      C1168   1.415       .  A
C1167     Br1175   1.918       .  S
C1168      C1169   1.405       .  A
C1169      C1170   1.396       .  A
C1169      H1172   1.082       .  S
C1170     Br1176   1.918       .  S
