geometry optimzed in LAMMPS
_audit_creation_date              2020-12-01 
_audit_creation_method            'lammps2cif' 
_symmetry_space_group_name_H-M    'P1' 
_symmetry_Int_Tables_number       1 
_symmetry_cell_setting            triclinic 
loop_ 
_symmetry_equiv_pos_as_xyz 
  x,y,z 
_cell_length_a                    38.71233798 
_cell_length_b                    38.99028897657169 
_cell_length_c                    59.46656396089886 
_cell_angle_alpha                 90.13045039279982 
_cell_angle_beta                  90.31304787646685 
_cell_angle_gamma                 124.72166990748687 
loop_ 
_atom_site_label 
_atom_site_type_symbol 
_atom_site_fract_x 
_atom_site_fract_y 
_atom_site_fract_z 
_atom_site_charge 
C1          C  0.15819216  0.32133099  0.61901114     0.46300
H2          H  0.15638584  0.32029714  0.60031494    -0.02700
C3          C  0.16216851  0.32406495  0.66270645     0.46400
H4          H  0.16384609  0.32508288  0.68136218    -0.02700
C5          C  0.13491383  0.27844256  0.62972664    -0.16400
C6          C  0.20290378  0.34438720  0.62808997    -0.16200
C7          C  0.13998917  0.34324555  0.62949509    -0.16500
C8          C  0.13644930  0.27903703  0.65278249    -0.16500
C9          C  0.20545384  0.34598204  0.65110328    -0.16100
C10         C  0.14176422  0.34507203  0.65252396    -0.16400
C11         C  0.15602795  0.31782974  0.82121904     0.46300
H12         H  0.15549985  0.31684954  0.80257091    -0.02700
C13         C  0.15639611  0.31965827  0.86491782     0.46400
H14         H  0.15646424  0.32068101  0.88362667    -0.02700
C15         C  0.13796073  0.34127640  0.83125659    -0.16400
C16         C  0.12986863  0.27400108  0.83222641    -0.16200
C17         C  0.20094924  0.33965920  0.83184789    -0.16500
C18         C  0.13894344  0.34216714  0.85432014    -0.16500
C19         C  0.13005136  0.27563419  0.85525805    -0.16100
C20         C  0.20003947  0.34002556  0.85502992    -0.16400
C21         C  0.00126141  0.48178574  0.71947631     0.46300
H22         H  0.00183332  0.48201743  0.70080524    -0.02700
C23         C  0.99998973  0.48145038  0.76332541     0.46400
H24         H  0.99990921  0.48155934  0.78197269    -0.02700
C25         C  0.01894384  0.02607806  0.72954798    -0.16400
C26         C  0.45680670  0.45861439  0.72936830    -0.16200
C27         C  0.02183749  0.46158159  0.73026826    -0.16500
C28         C  0.01765182  0.02444787  0.75264897    -0.16500
C29         C  0.45557886  0.45763136  0.75258112    -0.16100
C30         C  0.02063920  0.46092342  0.75333034    -0.16400
C31         C  0.30900894  0.13533103  0.36385064     0.46300
H32         H  0.30941283  0.13482861  0.38256026    -0.02700
C33         C  0.30805453  0.13604016  0.32015805     0.46400
H34         H  0.30780071  0.13609466  0.30151336    -0.02700
C35         C  0.33308907  0.17920964  0.35412712    -0.16400
C36         C  0.32779806  0.11414148  0.35337989    -0.16200
C37         C  0.26493964  0.11277235  0.35385877    -0.16500
C38         C  0.33261100  0.18033551  0.33103701    -0.16500
C39         C  0.32769673  0.11400249  0.33034465    -0.16100
C40         C  0.26364259  0.11316523  0.33073821    -0.16400
C41         C  0.30091776  0.12806943  0.11645804     0.46300
H42         H  0.29868578  0.12505912  0.09784431    -0.02700
C43         C  0.30444917  0.13275206  0.16008661     0.46400
H44         H  0.30582773  0.13497862  0.17873073    -0.02700
C45         C  0.32546744  0.17283266  0.12504106    -0.16400
C46         C  0.25801649  0.10645504  0.12738433    -0.16200
C47         C  0.32250670  0.10927327  0.12695587    -0.16500
C48         C  0.32759361  0.17619675  0.14812722    -0.16500
C49         C  0.25904424  0.10847957  0.15032947    -0.16100
C50         C  0.32390847  0.11042590  0.15005555    -0.16400
C51         C  0.46979638  0.47187376  0.21794418     0.46300
H52         H  0.47012324  0.47067175  0.19929656    -0.02700
C53         C  0.46839123  0.47375808  0.26173717     0.46400
H54         H  0.46823221  0.47494542  0.28037150    -0.02700
C55         C  0.44583535  0.42821212  0.22861735    -0.16400
C56         C  0.01394256  0.49569738  0.22891067    -0.16200
C57         C  0.44861008  0.49243236  0.22735117    -0.16500
C58         C  0.44433437  0.42911376  0.25180400    -0.16500
C59         C  0.01301389  0.49670060  0.25201007    -0.16100
C60         C  0.44858649  0.49430423  0.25049835    -0.16400
O61         O  0.04608963  0.07085594  0.97312357    -0.80100
O62         O  0.48408142  0.40505668  0.01107690    -0.64700
O63         O  0.00649168  0.49456578  0.97293230    -1.11300
C64         C  0.41094502  0.99208485  0.02561979     1.06800
O65         O  0.41746672  0.37893820  0.00636898    -0.77900
O66         O  0.38339539  0.41574546  0.98950191    -0.65500
Ni67       Ni  0.05388168  0.02807077  0.96505003     1.34900
C68         C  0.39369688  0.43907439  0.97256477     0.85600
O69         O  0.02764668  0.43721628  0.97237379    -0.78500
O70         O  0.07360094  0.49888015  0.95553490    -0.88800
C71         C  0.44594050  0.37634160  0.01472437     0.85100
O72         O  0.07672674  0.03434081  0.99433322    -0.67000
O73         O  0.40153956  0.46097822  0.02836859    -0.86300
C74         C  0.06753583  0.00785363  0.00949987     0.86000
C75         C  0.05700667  0.46002352  0.95845665     1.07500
H76         H  0.48141897  0.47721829  0.02347609     0.39300
O77         O  0.46651768  0.46490344  0.00947456    -1.08900
O78         O  0.42764635  0.47510635  0.97140648    -0.65600
Ni79       Ni  0.46719154  0.99980596  0.99002472     1.26300
O80         O  0.04471127  0.48333360  0.01098143    -0.65800
O81         O  0.43720415  0.01350513  0.00995833    -0.78100
C82         C  0.01661121  0.07271033  0.96545883     0.85400
O83         O  0.47883062  0.04402025  0.97002721    -0.65300
Ni84       Ni  0.41065846  0.42096589  0.01711092     1.27400
Ni85       Ni  0.49698343  0.45009095  0.99157892     1.26100
H86         H  0.49194371  0.48252730  0.95886228     0.39900
O87         O  0.41676911  0.37927216  0.47799368    -0.80100
O88         O  0.48725837  0.05564234  0.51089601    -0.64700
O89         O  0.46606813  0.46408716  0.47380880    -1.11300
C90         C  0.06111838  0.46256592  0.52440580     1.06800
O91         O  0.05311776  0.08064220  0.50496990    -0.77900
O92         O  0.08828473  0.04417006  0.48894546    -0.65500
Ni93       Ni  0.40954492  0.42059476  0.46652397     1.34900
C94         C  0.07713303  0.01967723  0.47230438     0.85600
O95         O  0.44092296  0.02098693  0.47250469    -0.78500
O96         O  0.40036382  0.46043616  0.45456357    -0.88800
C97         C  0.02582430  0.08384023  0.51429327     0.85100
O98         O  0.38357408  0.41780565  0.49409938    -0.67000
O99         O  0.07706383  0.50125522  0.52761220    -0.86300
C100        C  0.39560888  0.44123287  0.51128730     0.86000
C101        C  0.41328916  0.99868257  0.45733631     1.07500
H102        H  0.49577861  0.48444818  0.52391452     0.39300
O103        O  0.00939077  0.49576635  0.50960444    -1.08900
O104        O  0.04445111  0.48232605  0.47099148    -0.65600
Ni105      Ni  0.49825934  0.45025767  0.49144412     1.26300
O106        O  0.43062041  0.47644285  0.51250377    -0.65800
O107        O  0.03151705  0.43925670  0.51028938    -0.78100
C108        C  0.44408090  0.37538204  0.46926573     0.85400
O109        O  0.48276394  0.40336727  0.47267174    -0.65300
Ni110      Ni  0.06208223  0.04072886  0.51656607     1.27400
Ni111      Ni  0.47346101  0.00972017  0.49170326     1.26100
H112        H  0.48003461  0.47569407  0.45969038     0.39900
C113        C  0.17187313  0.04830015  0.09128642     0.30600
C114        C  0.14147951  0.01312935  0.07872691    -0.35700
C115        C  0.12467049  0.02103349  0.06008546     0.16600
C116        C  0.13727872  0.06078274  0.05412485     0.22400
C117        C  0.16689028  0.09568716  0.06689875    -0.33800
C118        C  0.18328030  0.08776914  0.08559935     0.16500
O119        O  0.19477280  0.04897881  0.10803160    -0.25900
C120        C  0.22039859  0.08929991  0.11323314     0.02100
C121        C  0.21443557  0.11470714  0.09998310    -0.30700
O122        O  0.11925623  0.06137764  0.03547012    -0.22600
C123        C  0.09435569  0.02146997  0.02951436    -0.02600
C124        C  0.09615614  0.99481530  0.04422592    -0.17000
H125        H  0.13254617  0.98204093  0.08277171     0.21000
H126        H  0.17733043  0.12698990  0.06220864     0.19400
H127        H  0.23237739  0.14841097  0.10004677     0.19300
H128        H  0.07947632  0.96122782  0.04312510     0.15200
C129        C  0.38959565  0.26064599  0.09087787     0.30600
C130        C  0.42630315  0.29827305  0.08384115    -0.35700
C131        C  0.42568954  0.31056220  0.06167043     0.16600
C132        C  0.39109481  0.28763843  0.04766430     0.22400
C133        C  0.35480449  0.25017144  0.05460083    -0.33800
C134        C  0.35560123  0.23791956  0.07652813     0.16500
O135        O  0.38326318  0.24215878  0.11054545    -0.25900
C136        C  0.34465547  0.20729218  0.10855722     0.06300
C137        C  0.32622058  0.20335874  0.08774090    -0.30700
O138        O  0.39532121  0.30651524  0.02857356    -0.22600
C139        C  0.43343442  0.34179104  0.02999548    -0.02600
C140        C  0.45409231  0.34595200  0.05014177    -0.17000
H141        H  0.45323085  0.31675632  0.09487297     0.21000
H142        H  0.32748415  0.23213560  0.04375886     0.19400
H143        H  0.29613645  0.17786496  0.08127140     0.19300
H144        H  0.48371860  0.37285860  0.05626589     0.15200
C145        C  0.38820225  0.05376726  0.05653060     0.30600
C146        C  0.38678537  0.08801853  0.06181187    -0.35700
C147        C  0.36818305  0.08589043  0.08244403     0.16600
C148        C  0.35220959  0.05259729  0.09695629     0.22400
C149        C  0.35342612  0.01838583  0.09163663    -0.33800
C150        C  0.37170557  0.02038821  0.07101108     0.16500
O151        O  0.40433086  0.04886461  0.03823714    -0.25900
C152        C  0.39745878  0.01160530  0.04111457     0.06300
C153        C  0.37728273  0.99268090  0.06116421    -0.30700
O154        O  0.33527685  0.05666559  0.11506091    -0.22600
C155        C  0.34058919  0.09313079  0.11210396    -0.02600
C156        C  0.36075454  0.11258533  0.09211973    -0.17000
H157        H  0.39903917  0.11430464  0.05061579     0.21000
H158        H  0.34066314  0.99185332  0.10270095     0.19400
H159        H  0.36901109  0.46753992  0.06512594     0.19300
H160        H  0.36798602  0.14180293  0.08547181     0.15200
C161        C  0.39848649  0.34405195  0.18954572     0.30600
C162        C  0.37388688  0.31996362  0.17086385    -0.35700
C163        C  0.36612618  0.28008567  0.16868864     0.16600
C164        C  0.38150006  0.26494850  0.18377295     0.22400
C165        C  0.40660701  0.28928143  0.20213478    -0.33800
C166        C  0.41432303  0.32896825  0.20432614     0.16500
O167        O  0.40794479  0.38124115  0.19568559    -0.25900
C168        C  0.42972402  0.38975202  0.21481365     0.06300
C169        C  0.43550704  0.35871833  0.22053442    -0.30700
O170        O  0.36963619  0.22651071  0.17890681    -0.22600
C171        C  0.34669094  0.21681526  0.16022663    -0.02600
C172        C  0.34322486  0.24896944  0.15323476    -0.17000
H173        H  0.36102849  0.33114517  0.15910377     0.21000
H174        H  0.41871520  0.27775879  0.21416199     0.19400
H175        H  0.45196641  0.35768119  0.23500234     0.19300
H176        H  0.32596232  0.24923477  0.13893455     0.15200
C177        C  0.38063477  0.07160441  0.17185317     0.30600
C178        C  0.41167597  0.06339381  0.17188148    -0.35700
C179        C  0.41096776  0.03979845  0.18995507     0.16600
C180        C  0.38150955  0.02505911  0.20677466     0.22400
C181        C  0.35040875  0.03322362  0.20674649    -0.33800
C182        C  0.35138757  0.05722411  0.18877216     0.16500
O183        O  0.37549649  0.09279980  0.15648489    -0.25900
C184        C  0.34267606  0.09247780  0.16359475     0.06300
C185        C  0.32654836  0.07092844  0.18374365    -0.30700
O186        O  0.39349023  0.50373875  0.22002803    -0.22600
C187        C  0.42669995  0.50517167  0.21281913    -0.02600
C188        C  0.43723335  0.02811577  0.19551862    -0.17000
H189        H  0.43504177  0.07497475  0.15880088     0.21000
H190        H  0.33649135  0.52409003  0.21969913     0.19400
H191        H  0.29963536  0.06504010  0.19292634     0.19300
H192        H  0.46495040  0.03529740  0.18667691     0.15200
C193        C  0.15956104  0.07339942  0.17199145     0.30600
C194        C  0.12000422  0.06717454  0.17224239    -0.35700
C195        C  0.09352474  0.04346221  0.19013260     0.16600
C196        C  0.10513873  0.02675822  0.20647412     0.22400
C197        C  0.14464783  0.03298738  0.20621715    -0.33800
C198        C  0.17134198  0.05716980  0.18852827     0.16500
O199        O  0.18902591  0.09420497  0.15676637    -0.25900
C200        C  0.22038111  0.09178672  0.16374645     0.06300
C201        C  0.21121528  0.06928729  0.18351598    -0.30700
O202        O  0.08724570  0.51681195  0.22444583    -0.22600
C203        C  0.05326703  0.51281983  0.21579747    -0.02600
C204        C  0.05462743  0.03331393  0.19594857    -0.17000
H205        H  0.11071803  0.08027233  0.15950736     0.21000
H206        H  0.16947955  0.54083192  0.22455953     0.19400
H207        H  0.23048671  0.06171796  0.19240663     0.19300
H208        H  0.03585425  0.04197572  0.18750519     0.15200
C209        C  0.13132217  0.03414411  0.42228719     0.30600
C210        C  0.14102367  0.02300561  0.40197279    -0.35700
C211        C  0.17612124  0.05559354  0.39051358     0.16600
C212        C  0.19948964  0.09613874  0.39845797     0.22400
C213        C  0.19010400  0.10715485  0.41872010    -0.33800
C214        C  0.15552041  0.07470774  0.43022613     0.16500
O215        O  0.10028231  0.00897372  0.43599862    -0.25900
C216        C  0.10520835  0.03391129  0.45291360     0.06300
C217        C  0.13913688  0.07502121  0.45021918    -0.30700
O218        O  0.23193797  0.12131674  0.38582110    -0.22600
C219        C  0.22953275  0.09708715  0.36935477    -0.02600
C220        C  0.19579968  0.05553214  0.37156223    -0.17000
H221        H  0.12297641  0.99119340  0.39575593     0.21000
H222        H  0.20901688  0.13873711  0.42527520     0.19400
H223        H  0.14990619  0.10138871  0.46131868     0.19300
H224        H  0.18827153  0.02898733  0.36142032     0.15200
C225        C  0.38743128  0.29173584  0.43225262     0.30600
C226        C  0.35061818  0.25875466  0.42202600    -0.35700
C227        C  0.35547168  0.24632047  0.40089367     0.16600
C228        C  0.39380717  0.26450141  0.39048092     0.22400
C229        C  0.43078913  0.29774409  0.40073059    -0.33800
C230        C  0.42599502  0.31034299  0.42197896     0.16500
O231        O  0.38950625  0.31035754  0.45117099    -0.25900
C232        C  0.42997545  0.34116470  0.45325945     0.06300
C233        C  0.45433630  0.34246538  0.43571451    -0.30700
O234        O  0.39100348  0.24538282  0.37147048    -0.22600
C235        C  0.35021270  0.21501461  0.36969778    -0.02600
C236        C  0.32683282  0.21455059  0.38744670    -0.17000
H237        H  0.32022725  0.24397345  0.42993180     0.21000
H238        H  0.46112630  0.31257934  0.39277977     0.19400
H239        H  0.48725788  0.36587517  0.43253645     0.19300
H240        H  0.29389570  0.19238401  0.39079377     0.15200
C241        C  0.37538808  0.09028783  0.39455313     0.30600
C242        C  0.40288534  0.09858451  0.41245181    -0.35700
C243        C  0.39663217  0.06356492  0.42320501     0.16600
C244        C  0.36567227  0.02323181  0.41664906     0.22400
C245        C  0.33799058  0.01492721  0.39887709    -0.33800
C246        C  0.34415076  0.04991701  0.38820165     0.16500
O247        O  0.37483708  0.11825551  0.38251747    -0.25900
C248        C  0.34338397  0.09546122  0.36804855     0.06300
C249        C  0.32259659  0.05277139  0.37107039    -0.30700
O250        O  0.36663328  0.99523421  0.42835853    -0.22600
C251        C  0.39829438  0.01785177  0.44276639    -0.02600
C252        C  0.41807669  0.06059766  0.44042777    -0.17000
H253        H  0.42740855  0.13009531  0.41761185     0.21000
H254        H  0.31354660  0.98341678  0.39366440     0.19400
H255        H  0.29486528  0.02767301  0.36238157     0.19300
H256        H  0.44540203  0.08570338  0.44936716     0.15200
C257        C  0.38179138  0.32815298  0.27503880     0.30600
C258        C  0.35448295  0.28437519  0.27407171    -0.35700
C259        C  0.35484327  0.26291766  0.29291808     0.16600
C260        C  0.37952103  0.28322877  0.31161940     0.22400
C261        C  0.40627144  0.32698187  0.31274282    -0.33800
C262        C  0.40667689  0.34839716  0.29369982     0.16500
O263        O  0.39006189  0.35395365  0.25836490    -0.25900
C264        C  0.42127506  0.39119499  0.26618116     0.06300
C265        C  0.43216863  0.38966348  0.28833251    -0.30700
O266        O  0.37566220  0.25716337  0.32711055    -0.22600
C267        C  0.34835487  0.21944077  0.31829648    -0.02600
C268        C  0.33446144  0.22120519  0.29692859    -0.17000
H269        H  0.33575152  0.26815516  0.25924234     0.21000
H270        H  0.42662273  0.34311759  0.32710459     0.19400
H271        H  0.45727026  0.41465395  0.29846818     0.19300
H272        H  0.31218046  0.19567366  0.28603070     0.15200
C273        C  0.40958735  0.05252934  0.27504870     0.30600
C274        C  0.40148964  0.08329565  0.27437446    -0.35700
C275        C  0.37806945  0.08334980  0.29221700     0.16600
C276        C  0.36416837  0.05534383  0.30965448     0.22400
C277        C  0.37223451  0.02445080  0.31036129    -0.33800
C278        C  0.39530830  0.02413783  0.29234682     0.16500
O279        O  0.42925606  0.04593910  0.25954406    -0.25900
C280        C  0.43221896  0.51498665  0.26371575     0.06300
C281        C  0.41587923  0.50347501  0.28531416    -0.30700
O282        O  0.34384205  0.06176871  0.32484323    -0.22600
C283        C  0.34440552  0.09413985  0.31710806    -0.02600
C284        C  0.36502586  0.10866577  0.29668405    -0.17000
H285        H  0.41228004  0.10531966  0.26070484     0.21000
H286        H  0.37656718  0.51181998  0.32376282     0.19400
H287        H  0.41271558  0.47911636  0.29571943     0.19300
H288        H  0.37098604  0.13499165  0.28702946     0.15200
C289        C  0.11260476  0.05873339  0.27448471     0.30600
C290        C  0.15664378  0.08458184  0.27275748    -0.35700
C291        C  0.17926470  0.08659345  0.29182715     0.16600
C292        C  0.15969424  0.06533579  0.31127153     0.22400
C293        C  0.12139406  0.52230366  0.30709836    -0.33800
C294        C  0.09320468  0.03700018  0.29386541     0.16500
O295        O  0.08552634  0.04943125  0.25812829    -0.25900
C296        C  0.05120021  0.51764383  0.26650712     0.06300
C297        C  0.05600655  0.49880188  0.28490996    -0.30700
O298        O  0.18656205  0.07141850  0.32700978    -0.22600
C299        C  0.22411466  0.09669884  0.31775791    -0.02600
C300        C  0.22149300  0.10702725  0.29567543    -0.17000
H301        H  0.17208623  0.10080026  0.25737889     0.21000
H302        H  0.10791020  0.49583129  0.31826011     0.19400
H303        H  0.03332172  0.46830926  0.29181159     0.19300
H304        H  0.24672442  0.12704086  0.28422600     0.15200
C305        C  0.09937354  0.21067544  0.90171911     0.30600
C306        C  0.10548759  0.20030845  0.92307941    -0.35700
C307        C  0.07066385  0.16490055  0.93267297     0.16600
C308        C  0.03195036  0.14088648  0.92214373     0.22400
C309        C  0.02549710  0.15188598  0.90066656    -0.33800
C310        C  0.06092739  0.18753272  0.89084209     0.16500
O311        O  0.12833224  0.24261457  0.88999466    -0.25900
C312        C  0.10893804  0.24031467  0.87104985     0.06300
C313        C  0.06666833  0.20665363  0.87051001    -0.30700
O314        O  0.00553991  0.10611988  0.93336422    -0.22600
C315        C  0.02801607  0.10849149  0.95118555    -0.02600
C316        C  0.06843729  0.14464824  0.95159618    -0.17000
H317        H  0.13588225  0.21801671  0.93138527     0.21000
H318        H  0.99562349  0.13317007  0.89191251     0.19400
H319        H  0.04338827  0.19870358  0.85759108     0.19300
H320        H  0.09391952  0.15281790  0.96305466     0.15200
C321        C  0.33751772  0.42029923  0.92248492     0.30600
C322        C  0.32703333  0.43003536  0.90198564    -0.35700
C323        C  0.29063727  0.39711696  0.89125920     0.16600
C324        C  0.26658464  0.35733458  0.89997048     0.22400
C325        C  0.27692833  0.34763272  0.92045982    -0.33800
C326        C  0.31295313  0.38058595  0.93127753     0.16500
O327        O  0.36946099  0.44642447  0.93574166    -0.25900
C328        C  0.36487959  0.42306418  0.95326802     0.06300
C329        C  0.33029364  0.38191598  0.95139643    -0.30700
O330        O  0.23289789  0.33187429  0.88773074    -0.22600
C331        C  0.23558098  0.35535175  0.87073861    -0.02600
C332        C  0.27032659  0.39653586  0.87236630    -0.17000
H333        H  0.34540516  0.46123170  0.89513598     0.21000
H334        H  0.25767149  0.31680562  0.92771876     0.19400
H335        H  0.31949849  0.35670179  0.96320029     0.19300
H336        H  0.27826817  0.42264278  0.86183605     0.15200
C337        C  0.10102134  0.43407323  0.91664722     0.30600
C338        C  0.12593408  0.44155714  0.89786171    -0.35700
C339        C  0.12076510  0.40634842  0.88799512     0.16600
C340        C  0.09286536  0.36645247  0.89595712     0.22400
C341        C  0.06791640  0.35893651  0.91480673    -0.33800
C342        C  0.07328308  0.39427195  0.92479468     0.16500
O343        O  0.10007878  0.46240378  0.92805537    -0.25900
C344        C  0.07156836  0.44062222  0.94381436     0.06300
C345        C  0.05387388  0.39802304  0.94269740    -0.30700
O346        O  0.09437385  0.33837949  0.88455103    -0.22600
C347        C  0.12305941  0.36059617  0.86891043    -0.02600
C348        C  0.14116085  0.40311772  0.87054257    -0.17000
H349        H  0.14787945  0.47267259  0.89142720     0.21000
H350        H  0.04612447  0.32783573  0.92129782     0.19400
H351        H  0.02914779  0.37337205  0.95293709     0.19300
H352        H  0.16689115  0.42811920  0.86093238     0.15200
C353        C  0.35110455  0.40041785  0.77353857     0.30600
C354        C  0.30686899  0.37560599  0.77183605    -0.35700
C355        C  0.28487099  0.37101154  0.79162813     0.16600
C356        C  0.30515596  0.38916725  0.81168785     0.22400
C357        C  0.34935309  0.41427298  0.81335366    -0.33800
C358        C  0.37132909  0.41932153  0.79350252     0.16500
O359        O  0.37768532  0.40993192  0.75699255    -0.25900
C360        C  0.41572779  0.43632092  0.76609767     0.06300
C361        C  0.41349282  0.44272993  0.78901108    -0.30700
O362        O  0.27867577  0.38052537  0.82811221    -0.22600
C363        C  0.24058501  0.35678952  0.81869242    -0.02600
C364        C  0.24266115  0.34994413  0.79583450    -0.17000
H365        H  0.29077026  0.36136786  0.75608246     0.21000
H366        H  0.36546220  0.42921995  0.82900197     0.19400
H367        H  0.43893911  0.46282867  0.80059197     0.19300
H368        H  0.21698713  0.33176202  0.78404199     0.15200
C369        C  0.09937985  0.39770405  0.81007228     0.30600
C370        C  0.09354936  0.43009361  0.80999949    -0.35700
C371        C  0.06794257  0.42866912  0.79275715     0.16600
C372        C  0.04917394  0.39731304  0.77675933     0.22400
C373        C  0.05440648  0.36439826  0.77710152    -0.33800
C374        C  0.08048459  0.36609553  0.79425539     0.16500
O375        O  0.12273968  0.39366500  0.82443506    -0.25900
C376        C  0.11915947  0.35910711  0.81794266     0.06300
C377        C  0.09326469  0.34055873  0.79909928    -0.30700
O378        O  0.02902424  0.40377436  0.76124458    -0.22600
C379        C  0.03499494  0.43973913  0.76735217    -0.02600
C380        C  0.05846158  0.45632679  0.78704850    -0.17000
H381        H  0.10875540  0.45519567  0.82225891     0.21000
H382        H  0.04015159  0.33989930  0.76449050     0.19400
H383        H  0.08425440  0.31194936  0.79065538     0.19300
H384        H  0.05349140  0.97675321  0.79738948     0.15200
C385        C  0.04608280  0.12001362  0.77623650     0.30600
C386        C  0.05375354  0.15981206  0.77591973    -0.35700
C387        C  0.07653686  0.18589550  0.79426793     0.16600
C388        C  0.09010904  0.17328346  0.81186793     0.22400
C389        C  0.08246498  0.13348558  0.81216005    -0.33800
C390        C  0.06014700  0.10758552  0.79366989     0.16500
O391        O  0.02788600  0.09182446  0.76011514    -0.25900
C392        C  0.03082631  0.06112348  0.76704770     0.06300
C393        C  0.04994969  0.06885104  0.78804954    -0.30700
O394        O  0.11060554  0.20250861  0.82734888    -0.22600
C395        C  0.11045695  0.23440052  0.81954875    -0.02600
C396        C  0.09006040  0.22604941  0.79889596    -0.17000
H397        H  0.04352855  0.17003346  0.76206831     0.21000
H398        H  0.09378804  0.12370625  0.82567326     0.19400
H399        H  0.05733735  0.04980893  0.79720088     0.19300
H400        H  0.08525961  0.24627125  0.78899468     0.15200
C401        C  0.08251811  0.16433481  0.55305256     0.30600
C402        C  0.11921493  0.19549346  0.56419929    -0.35700
C403        C  0.11348172  0.20897635  0.58473744     0.16600
C404        C  0.07439740  0.19348028  0.59365790     0.22400
C405        C  0.03754765  0.16198317  0.58251935    -0.33800
C406        C  0.04324860  0.14819993  0.56192851     0.16500
O407        O  0.08091731  0.14557248  0.53432454    -0.25900
C408        C  0.04012640  0.11704353  0.53098379     0.06300
C409        C  0.01501325  0.11732741  0.54753838    -0.30700
O410        O  0.07660143  0.21358554  0.61208935    -0.22600
C411        C  0.11764960  0.24168227  0.61507205    -0.02600
C412        C  0.14195443  0.23995106  0.59866145    -0.17000
H413        H  0.15011005  0.20831764  0.55733345     0.21000
H414        H  0.00667007  0.14943566  0.58930225     0.19400
H415        H  0.48140464  0.09599745  0.54954413     0.19300
H416        H  0.17554057  0.26070101  0.59636257     0.15200
C417        C  0.26710172  0.36362167  0.58221564     0.30600
C418        C  0.27555743  0.35454495  0.56108690    -0.35700
C419        C  0.31347456  0.38587400  0.55148815     0.16600
C420        C  0.34150436  0.42378252  0.56186935     0.22400
C421        C  0.33303545  0.43288797  0.58325236    -0.33800
C422        C  0.29476346  0.40122909  0.59296455     0.16500
O423        O  0.23251812  0.33911571  0.59354202    -0.25900
C424        C  0.23780554  0.36055846  0.61208704     0.06300
C425        C  0.27594154  0.39978580  0.61269213    -0.30700
O426        O  0.37466873  0.44874104  0.54925261    -0.22600
C427        C  0.36730386  0.42626260  0.53066058    -0.02600
C428        C  0.32978384  0.38694709  0.53123356    -0.17000
H429        H  0.25365476  0.32523106  0.55254583     0.21000
H430        H  0.35439178  0.46260760  0.59154784     0.19400
H431        H  0.28723783  0.42410510  0.62527972     0.19300
H432        H  0.31627280  0.36275923  0.51843929     0.15200
C433        C  0.10570058  0.43751742  0.56673583     0.30600
C434        C  0.12826326  0.44426177  0.58671022    -0.35700
C435        C  0.12330893  0.40883782  0.59613961     0.16600
C436        C  0.09844285  0.36975230  0.58634364     0.22400
C437        C  0.07600806  0.36307324  0.56640584    -0.33800
C438        C  0.08057566  0.39832112  0.55711545     0.16500
O439        O  0.10364512  0.46556820  0.55577202    -0.25900
C440        C  0.07686486  0.44403644  0.53896001     0.06300
C441        C  0.06166436  0.40206159  0.53886804    -0.30700
O442        O  0.09964350  0.34134468  0.59741276    -0.22600
C443        C  0.12485023  0.36222055  0.61477106    -0.02600
C444        C  0.14075561  0.40441929  0.61487878    -0.17000
H445        H  0.14780638  0.47480807  0.59448332     0.21000
H446        H  0.05617374  0.33245682  0.55875337     0.19400
H447        H  0.03847314  0.37757606  0.52771490     0.19300
H448        H  0.16342747  0.42847613  0.62639740     0.15200
C449        C  0.07896366  0.17681973  0.67414319     0.30600
C450        C  0.04802637  0.13363933  0.67360246    -0.35700
C451        C  0.04880835  0.11063793  0.69144557     0.16600
C452        C  0.07810887  0.12891200  0.70862756     0.22400
C453        C  0.10902529  0.17221420  0.70921918    -0.33800
C454        C  0.10809946  0.19530543  0.69139311     0.16500
O455        O  0.08451176  0.20380882  0.65881815    -0.25900
C456        C  0.11749580  0.24031530  0.66625366     0.06300
C457        C  0.13334918  0.23700473  0.68661290    -0.30700
O458        O  0.07236988  0.10162403  0.72386663    -0.22600
C459        C  0.03870012  0.06541300  0.71650446    -0.02600
C460        C  0.02303639  0.06910505  0.69622749    -0.17000
H461        H  0.02494891  0.11900703  0.66016749     0.21000
H462        H  0.13201204  0.18685988  0.72269502     0.19400
H463        H  0.16046372  0.26137837  0.69600087     0.19300
H464        H  0.99567559  0.04502135  0.68686716     0.15200
C465        C  0.36187348  0.43127881  0.70507867     0.30600
C466        C  0.32241805  0.42477632  0.70518041    -0.35700
C467        C  0.29522235  0.40013204  0.68765043     0.16600
C468        C  0.30645693  0.38378383  0.67089967     0.22400
C469        C  0.34606243  0.39038098  0.67075626    -0.33800
C470        C  0.37302984  0.41440148  0.68859530     0.16500
O471        O  0.39062093  0.45050471  0.72087626    -0.25900
C472        C  0.42007978  0.44491864  0.71490230     0.06300
C473        C  0.41149226  0.42362337  0.69461640    -0.30700
O474        O  0.27615124  0.36197363  0.65606263    -0.22600
C475        C  0.24520918  0.36433250  0.66348880    -0.02600
C476        C  0.25504269  0.38724965  0.68320850    -0.17000
H477        H  0.31316356  0.43705263  0.71839344     0.21000
H478        H  0.35479031  0.37691085  0.65796712     0.19400
H479        H  0.42968686  0.41423633  0.68629990     0.19300
H480        H  0.23585920  0.39434423  0.69249864     0.15200
C481        C  0.08331618  0.42878618  0.70879046     0.30600
C482        C  0.11423825  0.42047225  0.70939102    -0.35700
C483        C  0.11436296  0.39770614  0.69107822     0.16600
C484        C  0.08625531  0.38460723  0.67339176     0.22400
C485        C  0.05562811  0.39312505  0.67273794    -0.33800
C486        C  0.05529849  0.41553803  0.69105698     0.16500
O487        O  0.07602833  0.44761590  0.72459220    -0.25900
C488        C  0.04278061  0.44620036  0.71694649     0.06300
C489        C  0.02889519  0.42704991  0.69599955    -0.30700
O490        O  0.09185069  0.36401957  0.65799304    -0.22600
C491        C  0.12394289  0.36368090  0.66576212    -0.02600
C492        C  0.13914456  0.38394528  0.68643253    -0.17000
H493        H  0.13612695  0.43041850  0.72332492     0.21000
H494        H  0.03326518  0.38254002  0.65899566     0.19400
H495        H  0.50194139  0.42060194  0.68635424     0.19300
H496        H  0.16517028  0.38871997  0.69626207     0.15200
C497        C  0.15217961  0.81967797  0.61837059     0.46300
H498        H  0.14939252  0.81815697  0.59970315    -0.02700
C499        C  0.15799353  0.82304320  0.66204967     0.46400
H500        H  0.16026866  0.82431677  0.68068559    -0.02700
C501        C  0.12951589  0.77711771  0.62938147    -0.16400
C502        C  0.19742767  0.84289317  0.62682050    -0.16200
C503        C  0.13422401  0.84152371  0.62925473    -0.16500
C504        C  0.13211097  0.77780706  0.65236817    -0.16500
C505        C  0.20088180  0.84499197  0.64989758    -0.16100
C506        C  0.13704510  0.84376181  0.65221637    -0.16400
C507        C  0.15483831  0.81833517  0.81911043     0.46300
H508        H  0.15357415  0.81644967  0.80047469    -0.02700
C509        C  0.15817646  0.82254502  0.86273528     0.46400
H510        H  0.15965498  0.82489185  0.88142231    -0.02700
C511        C  0.13799642  0.84290856  0.82925463    -0.16400
C512        C  0.12949812  0.77516384  0.83087277    -0.16200
C513        C  0.19996123  0.83991860  0.82892947    -0.16500
C514        C  0.14031277  0.84459643  0.85226261    -0.16500
C515        C  0.13114390  0.77809953  0.85390306    -0.16100
C516        C  0.20079962  0.84153123  0.85205914    -0.16400
C517        C  0.99795804  0.98304259  0.71823743     0.46300
H518        H  0.99872835  0.98444001  0.69957900    -0.02700
C519        C  0.99651943  0.97999440  0.76205413     0.46400
H520        H  0.99583017  0.97868248  0.78068675    -0.02700
C521        C  0.02423683  0.52576378  0.72980044    -0.16400
C522        C  0.45338234  0.95702707  0.72791269    -0.16200
C523        C  0.02076113  0.96463736  0.72825443    -0.16500
C524        C  0.02357826  0.52548788  0.75294836    -0.16500
C525        C  0.45244830  0.95471846  0.75100463    -0.16100
C526        C  0.01976610  0.96261768  0.75134452    -0.16400
C527        C  0.31019928  0.63274043  0.36403310     0.46300
H528        H  0.30948808  0.63090879  0.38270810    -0.02700
C529        C  0.31185206  0.63613590  0.32039651     0.46400
H530        H  0.31192734  0.63719500  0.30176282    -0.02700
C531        C  0.33345305  0.67715155  0.35515324    -0.16400
C532        C  0.33162615  0.61406208  0.35342624    -0.16200
C533        C  0.26655195  0.60954661  0.35334881    -0.16500
C534        C  0.33461274  0.67959134  0.33212422    -0.16500
C535        C  0.33275382  0.61523645  0.33029500    -0.16100
C536        C  0.26681122  0.61114221  0.33028467    -0.16400
C537        C  0.31623701  0.64026967  0.11937822     0.46300
H538        H  0.31819764  0.64361350  0.10077922    -0.02700
C539        C  0.31147095  0.63260953  0.16289381     0.46400
H540        H  0.31023763  0.63018376  0.18148971    -0.02700
C541        C  0.34036983  0.68152639  0.13174261    -0.16400
C542        C  0.27128725  0.61699904  0.12822877    -0.16200
C543        C  0.33423578  0.61724318  0.12840468    -0.16500
C544        C  0.33747924  0.67836269  0.15463411    -0.16500
C545        C  0.26816140  0.61234604  0.15120599    -0.16100
C546        C  0.33181057  0.61256538  0.15132398    -0.16400
C547        C  0.46364477  0.97205016  0.21980589     0.46300
H548        H  0.46298903  0.97100866  0.20113052    -0.02700
C549        C  0.46478841  0.97352792  0.26366334     0.46400
H550        H  0.46532143  0.97457224  0.28229676    -0.02700
C551        C  0.44099194  0.92857730  0.23056814    -0.16400
C552        C  0.00818633  0.99619762  0.22996676    -0.16200
C553        C  0.44233815  0.99190069  0.22991394    -0.16500
C554        C  0.44207520  0.92917768  0.25374063    -0.16500
C555        C  0.00891439  0.99773476  0.25312746    -0.16100
C556        C  0.44301016  0.99256680  0.25305707    -0.16400
O557        O  0.05515613  0.58110403  0.97513712    -0.80100
O558        O  0.47428087  0.89365652  0.00885880    -0.64700
O559        O  0.99695505  0.98444892  0.97155596    -1.11300
C560        C  0.41690821  0.49941583  0.02487799     1.06800
O561        O  0.40869206  0.87116696  0.00601362    -0.77900
O562        O  0.37329409  0.90772023  0.99069783    -0.65500
Ni563      Ni  0.06286912  0.53868456  0.96584723     1.34900
C564        C  0.38347937  0.93049855  0.97349816     0.85600
O565        O  0.01529294  0.92500628  0.96966786    -0.78500
O566        O  0.06576060  0.98831528  0.95614354    -0.88800
C567        C  0.43654123  0.86793500  0.01459121     0.85100
O568        O  0.08828450  0.54462610  0.99439886    -0.67000
O569        O  0.39597097  0.95391030  0.02956094    -0.86300
C570        C  0.07781727  0.52006490  0.01080925     0.86000
C571        C  0.04759689  0.94894670  0.95770587     1.07500
H572        H  0.47501452  0.96837492  0.02229267     0.39300
O573        O  0.45878196  0.95585524  0.00865799    -1.08900
O574        O  0.41828868  0.96557774  0.97160669    -0.65600
Ni575      Ni  0.47548319  0.50894112  0.99080108     1.26300
O576        O  0.03599809  0.97034035  0.00836201    -0.65800
O577        O  0.44445834  0.52173178  0.01001112    -0.78100
C578        C  0.02559884  0.58274727  0.96735023     0.85400
O579        O  0.48780138  0.55344124  0.97124833    -0.65300
Ni580      Ni  0.40307165  0.91311546  0.01753525     1.27400
Ni581      Ni  0.48687576  0.93909612  0.98968815     1.26100
H582        H  0.48237595  0.97319922  0.95739959     0.39900
O583        O  0.41628494  0.88067172  0.47701469    -0.80100
O584        O  0.49102529  0.55514430  0.51114432    -0.64700
O585        O  0.46424412  0.96534999  0.47321211    -1.11300
C586        C  0.05639584  0.96310369  0.52535732     1.06800
O587        O  0.05688170  0.57994583  0.50507800    -0.77900
O588        O  0.09053057  0.54307119  0.48798089    -0.65500
Ni589      Ni  0.40821094  0.92124813  0.46540573     1.34900
C590        C  0.07854411  0.51845033  0.47133848     0.85600
O591        O  0.44385633  0.52092031  0.47348911    -0.78500
O592        O  0.39843136  0.96045185  0.45330633    -0.88800
C593        C  0.02970439  0.58305235  0.51458130     0.85100
O594        O  0.38072976  0.91734736  0.49263598    -0.67000
O595        O  0.07246560  0.00183779  0.52863507    -0.86300
C596        C  0.39169252  0.94044464  0.50991247     0.86000
C597        C  0.41573102  0.49882244  0.45854567     1.07500
H598        H  0.49179390  0.98484878  0.52369668     0.39300
O599        O  0.00573093  0.99641386  0.50952601    -1.08900
O600        O  0.04284072  0.98388574  0.47150749    -0.65600
Ni601      Ni  0.49595590  0.95161260  0.49127090     1.26300
O602        O  0.42647351  0.97594474  0.51149693    -0.65800
O603        O  0.02795652  0.94028255  0.51066067    -0.78100
C604        C  0.44425265  0.87786112  0.46826086     0.85400
O605        O  0.48254247  0.90594014  0.47221301    -0.65300
Ni606      Ni  0.06606329  0.53996390  0.51612434     1.27400
Ni607      Ni  0.47660539  0.50915662  0.49214804     1.26100
H608        H  0.47875699  0.97735466  0.45926083     0.39900
C609        C  0.18249118  0.56477580  0.09299703     0.30600
C610        C  0.14518887  0.53041014  0.08372130    -0.35700
C611        C  0.13268589  0.53721791  0.06296073     0.16600
C612        C  0.15526447  0.57520374  0.05213367     0.22400
C613        C  0.19226009  0.60954157  0.06145972    -0.33800
C614        C  0.20476257  0.60268286  0.08210100     0.16500
O615        O  0.20169289  0.56490673  0.11144894    -0.25900
C616        C  0.23647871  0.60348370  0.11229501     0.02100
C617        C  0.23997201  0.62818241  0.09447100    -0.30700
O618        O  0.13892171  0.57422641  0.03248283    -0.22600
C619        C  0.10539579  0.53511755  0.03065254    -0.02600
C620        C  0.09978298  0.51066037  0.04914873    -0.17000
H621        H  0.12780096  0.50024027  0.09179076     0.21000
H622        H  0.21063807  0.63922408  0.05292407     0.19400
H623        H  0.26575617  0.65977767  0.09059951     0.19300
H624        H  0.07548641  0.47795152  0.05179497     0.15200
C625        C  0.40100857  0.76033791  0.09349616     0.30600
C626        C  0.43281934  0.78215371  0.07739768    -0.35700
C627        C  0.42593808  0.80383646  0.06116222     0.16600
C628        C  0.38993277  0.80323566  0.06079283     0.22400
C629        C  0.35870981  0.78211927  0.07698995    -0.33800
C630        C  0.36590163  0.76127197  0.09333284     0.16500
O631        O  0.39847132  0.73455988  0.10875440    -0.25900
C632        C  0.36193493  0.72003248  0.11874211     0.06300
C633        C  0.34042232  0.73559940  0.10988738    -0.30700
O634        O  0.38895240  0.82435593  0.04399771    -0.22600
C635        C  0.42487033  0.83924091  0.03339677    -0.02600
C636        C  0.44957323  0.82781947  0.04334903    -0.17000
H637        H  0.46033484  0.78139871  0.07721677     0.21000
H638        H  0.33032889  0.78136776  0.07660879     0.19400
H639        H  0.30875769  0.72601386  0.11357826     0.19300
H640        H  0.48028187  0.83617515  0.03833225     0.15200
C641        C  0.39777578  0.56257710  0.05659809     0.30600
C642        C  0.39997383  0.59844877  0.06299503    -0.35700
C643        C  0.38053321  0.59570805  0.08342021     0.16600
C644        C  0.36072431  0.56036149  0.09660588     0.22400
C645        C  0.35878252  0.52489736  0.09031030    -0.33800
C646        C  0.37758171  0.52742544  0.06990726     0.16500
O647        O  0.41381873  0.55764997  0.03832673    -0.25900
C648        C  0.40302957  0.51867481  0.04009116     0.06300
C649        C  0.38046891  0.49859287  0.05934858    -0.30700
O650        O  0.34299602  0.56364307  0.11444773    -0.22600
C651        C  0.35172132  0.60168685  0.11285461    -0.02600
C652        C  0.37493032  0.62316978  0.09389499    -0.17000
H653        H  0.41521705  0.62619318  0.05271902     0.21000
H654        H  0.34303085  0.49696072  0.10044192     0.19400
H655        H  0.36858616  0.96290391  0.06773918     0.19300
H656        H  0.38512378  0.65401504  0.08838031     0.15200
C657        C  0.38347191  0.82701225  0.20804067     0.30600
C658        C  0.35268800  0.78371688  0.20794538    -0.35700
C659        C  0.35832679  0.76041913  0.19221817     0.16600
C660        C  0.39161459  0.77878429  0.17748868     0.22400
C661        C  0.42230123  0.82185291  0.17763916    -0.33800
C662        C  0.41696593  0.84498428  0.19346543     0.16500
O663        O  0.38598321  0.85444085  0.22216889    -0.25900
C664        C  0.42187746  0.89017919  0.21678232     0.06300
C665        C  0.44208643  0.88629103  0.19878160    -0.30700
O666        O  0.38979703  0.75187635  0.16337462    -0.22600
C667        C  0.35515431  0.71555723  0.16912874    -0.02600
C668        C  0.33433550  0.71874873  0.18715580    -0.17000
H669        H  0.32654897  0.76923224  0.21947766     0.21000
H670        H  0.44861795  0.83628990  0.16622644     0.19400
H671        H  0.47227712  0.90988225  0.19169809     0.19300
H672        H  0.30450125  0.69454698  0.19432994     0.15200
C673        C  0.38428989  0.56794713  0.16964196     0.30600
C674        C  0.41333754  0.55732118  0.16830441    -0.35700
C675        C  0.41346991  0.53441700  0.18639692     0.16600
C676        C  0.38616514  0.52217554  0.20417830     0.22400
C677        C  0.35702427  0.53255574  0.20542070    -0.33800
C678        C  0.35746167  0.55611170  0.18760347     0.16500
O679        O  0.37951960  0.59010251  0.15496219    -0.25900
C680        C  0.34909019  0.59232487  0.16348828     0.06300
C681        C  0.33449563  0.57213500  0.18397680    -0.30700
O682        O  0.38760593  0.00508347  0.22249050    -0.22600
C683        C  0.42173220  0.00733025  0.21587442    -0.02600
C684        C  0.43997159  0.52297648  0.19164191    -0.17000
H685        H  0.43510442  0.56731548  0.15449039     0.21000
H686        H  0.32745390  0.02216698  0.22001977     0.19400
H687        H  0.30991170  0.56882386  0.19436609     0.19300
H688        H  0.46689934  0.52926665  0.18229469     0.15200
C689        C  0.16589157  0.57123153  0.17111244     0.30600
C690        C  0.12431174  0.55982941  0.16993466    -0.35700
C691        C  0.09984966  0.54115959  0.18922318     0.16600
C692        C  0.11534303  0.53426462  0.20832346     0.22400
C693        C  0.15699775  0.54590027  0.20957098    -0.33800
C694        C  0.18142752  0.56454918  0.19027650     0.16500
O695        O  0.19399544  0.58868875  0.15496746    -0.25900
C696        C  0.22813010  0.59329396  0.16378873     0.06300
C697        C  0.22211672  0.57897125  0.18583337    -0.30700
O698        O  0.07630081  0.00693789  0.22207970    -0.22600
C699        C  0.04596824  0.01147680  0.21595431    -0.02600
C700        C  0.05922344  0.52707485  0.19376114    -0.17000
H701        H  0.11190921  0.56512852  0.15500035     0.21000
H702        H  0.15416447  0.02041578  0.21914316     0.19400
H703        H  0.24417036  0.57859752  0.19690372     0.19300
H704        H  0.03726297  0.52797028  0.18287947     0.15200
C705        C  0.13001093  0.53374127  0.42015630     0.30600
C706        C  0.13918699  0.52253903  0.39969629    -0.35700
C707        C  0.17472702  0.55476862  0.38833250     0.16600
C708        C  0.19890680  0.59518359  0.39642615     0.22400
C709        C  0.18978624  0.60638624  0.41675704    -0.33800
C710        C  0.15488034  0.57416387  0.42824972     0.16500
O711        O  0.09954413  0.50845187  0.43413418    -0.25900
C712        C  0.10545086  0.53309320  0.45141187     0.06300
C713        C  0.13945086  0.57422963  0.44864752    -0.30700
O714        O  0.23243227  0.61958779  0.38426010    -0.22600
C715        C  0.23006660  0.59494207  0.36801586    -0.02600
C716        C  0.19494068  0.55395618  0.36980617    -0.17000
H717        H  0.12084170  0.49071539  0.39349877     0.21000
H718        H  0.20957510  0.63772083  0.42357703     0.19400
H719        H  0.15118574  0.60034304  0.46008688     0.19300
H720        H  0.18727213  0.52688563  0.36015231     0.15200
C721        C  0.38984949  0.79290605  0.43214348     0.30600
C722        C  0.35395029  0.75642588  0.42375505    -0.35700
C723        C  0.35760785  0.74390980  0.40244872     0.16600
C724        C  0.39392208  0.76552625  0.38996740     0.22400
C725        C  0.43018819  0.80241913  0.39840471    -0.33800
C726        C  0.42666755  0.81490501  0.42001794     0.16500
O727        O  0.39230146  0.81101496  0.45127400    -0.25900
C728        C  0.43140241  0.84482573  0.45178286     0.06300
C729        C  0.45450838  0.84897189  0.43284253    -0.30700
O730        O  0.39015920  0.74631940  0.37080045    -0.22600
C731        C  0.35084353  0.71225897  0.37125121    -0.02600
C732        C  0.32943765  0.70948920  0.39051651    -0.17000
H733        H  0.32506212  0.73895529  0.43321508     0.21000
H734        H  0.45905049  0.81987904  0.38893314     0.19400
H735        H  0.48597104  0.87476260  0.42846635     0.19300
H736        H  0.29821099  0.68475304  0.39564081     0.15200
C737        C  0.37823892  0.59170633  0.39613729     0.30600
C738        C  0.40284787  0.59955915  0.41546589    -0.35700
C739        C  0.39804086  0.56444430  0.42540574     0.16600
C740        C  0.37091343  0.52461950  0.41683566     0.22400
C741        C  0.34630254  0.51684251  0.39768907    -0.33800
C742        C  0.35115623  0.55174348  0.38778386     0.16500
O743        O  0.37648252  0.61938462  0.38445952    -0.25900
C744        C  0.34861319  0.59678952  0.36822204     0.06300
C745        C  0.33123292  0.55446433  0.36977754    -0.30700
O746        O  0.37249319  0.49653791  0.42800992    -0.22600
C747        C  0.40088979  0.51835778  0.44406396    -0.02600
C748        C  0.41780358  0.56086986  0.44340896    -0.17000
H749        H  0.42420502  0.63073149  0.42222121     0.21000
H750        H  0.32502590  0.48569831  0.39088721     0.19400
H751        H  0.30619428  0.52921470  0.35970151     0.19300
H752        H  0.44237149  0.58559667  0.45393117     0.15200
C753        C  0.40757759  0.83058848  0.27545783     0.30600
C754        C  0.39506470  0.78914862  0.27382507    -0.35700
C755        C  0.37870274  0.76541482  0.29336791     0.16600
C756        C  0.37517323  0.78144348  0.31323089     0.22400
C757        C  0.38748041  0.82303070  0.31483215    -0.33800
C758        C  0.40357991  0.84678780  0.29511023     0.16500
O759        O  0.42262464  0.85757057  0.25897396    -0.25900
C760        C  0.42750261  0.89152169  0.26767156     0.06300
C761        C  0.41679072  0.88688776  0.29037221    -0.30700
O762        O  0.35925840  0.75357228  0.32943007    -0.22600
C763        C  0.35256068  0.71929960  0.31981913    -0.02600
C764        C  0.36384105  0.72486865  0.29730547    -0.17000
H765        H  0.39753603  0.77621593  0.25827904     0.21000
H766        H  0.38438864  0.83578056  0.33027256     0.19400
H767        H  0.41731642  0.90914130  0.30153036     0.19300
H768        H  0.36203707  0.70262270  0.28558865     0.15200
C769        C  0.41232938  0.55378421  0.27162865     0.30600
C770        C  0.40157020  0.58281848  0.27073930    -0.35700
C771        C  0.38156615  0.58505919  0.28985999     0.16600
C772        C  0.37332633  0.56064320  0.30848009     0.22400
C773        C  0.38351187  0.53136906  0.30923757    -0.33800
C774        C  0.40303941  0.52884533  0.29013448     0.16500
O775        O  0.43063592  0.54604391  0.25564843    -0.25900
C776        C  0.42717139  0.01254480  0.26669904     0.06300
C777        C  0.40694601  0.99788582  0.28725799    -0.30700
O778        O  0.35540032  0.56810145  0.32466578    -0.22600
C779        C  0.35145039  0.59750404  0.31659561    -0.02600
C780        C  0.36704569  0.60919020  0.29478442    -0.17000
H781        H  0.40814946  0.60209901  0.25613592     0.21000
H782        H  0.36106404  0.00212574  0.32391014     0.19400
H783        H  0.40022390  0.97087854  0.29652282     0.19300
H784        H  0.36829448  0.63252216  0.28430496     0.15200
C785        C  0.11412006  0.55907897  0.27633625     0.30600
C786        C  0.15713784  0.59185994  0.27717385    -0.35700
C787        C  0.18143454  0.58824505  0.29339906     0.16600
C788        C  0.16429380  0.55482699  0.30783126     0.22400
C789        C  0.11578281  0.03969915  0.31304032    -0.33800
C790        C  0.09721411  0.52581800  0.29088172     0.16500
O791        O  0.08628822  0.55442884  0.26146815    -0.25900
C792        C  0.04829900  0.02056811  0.26683850     0.06300
C793        C  0.05117367  0.01221954  0.28926464    -0.30700
O794        O  0.19221233  0.55788437  0.32193626    -0.22600
C795        C  0.22792024  0.59368886  0.31667234    -0.02600
C796        C  0.22328975  0.61387336  0.29881934    -0.17000
H797        H  0.17081002  0.61790231  0.26570481     0.21000
H798        H  0.10035619  0.02213273  0.32811187     0.19400
H799        H  0.02644163  0.98932976  0.30017938     0.19300
H800        H  0.24685653  0.64378753  0.29159604     0.15200
C801        C  0.10326186  0.71823111  0.90228231     0.30600
C802        C  0.10965013  0.71067166  0.92432732    -0.35700
C803        C  0.07620929  0.67420076  0.93399843     0.16600
C804        C  0.03857005  0.64711749  0.92291903     0.22400
C805        C  0.03186212  0.65522278  0.90081919    -0.33800
C806        C  0.06590738  0.69158960  0.89090172     0.16500
O807        O  0.13102159  0.75015008  0.89016038    -0.25900
C808        C  0.11184877  0.74420981  0.87052959     0.06300
C809        C  0.07100087  0.70818331  0.86990303    -0.30700
O810        O  0.01370466  0.61239896  0.93431325    -0.22600
C811        C  0.03598459  0.61755086  0.95274685    -0.02600
C812        C  0.07488621  0.65557425  0.95348740    -0.17000
H813        H  0.13936034  0.73105853  0.93302033     0.21000
H814        H  0.00297247  0.63378385  0.89168148     0.19400
H815        H  0.04802619  0.69700258  0.85643762     0.19300
H816        H  0.10010598  0.66614525  0.96557608     0.15200
C817        C  0.32989874  0.91504370  0.92305006     0.30600
C818        C  0.32276264  0.92619331  0.90203631    -0.35700
C819        C  0.28872429  0.89395950  0.88964640     0.16600
C820        C  0.26359697  0.85355379  0.89739600     0.22400
C821        C  0.27040947  0.84245495  0.91852202    -0.33800
C822        C  0.30428435  0.87476708  0.93097820     0.16500
O823        O  0.36046917  0.94005968  0.93718577    -0.25900
C824        C  0.35417350  0.91560167  0.95445808     0.06300
C825        C  0.31942136  0.87468995  0.95166041    -0.30700
O826        O  0.23162458  0.82923136  0.88390308    -0.22600
C827        C  0.23639040  0.85412667  0.86716678    -0.02600
C828        C  0.27116187  0.89496964  0.87000474    -0.17000
H829        H  0.34205533  0.95789443  0.89592099     0.21000
H830        H  0.25018005  0.81106180  0.92496933     0.19400
H831        H  0.30794980  0.84852687  0.96286506     0.19300
H832        H  0.27987624  0.92217210  0.86027010     0.15200
C833        C  0.10129197  0.92778410  0.91981132     0.30600
C834        C  0.13118639  0.93803071  0.90324132    -0.35700
C835        C  0.12432421  0.90465855  0.89034791     0.16600
C836        C  0.09079082  0.86390978  0.89381992     0.22400
C837        C  0.06126764  0.85353061  0.91067489    -0.33800
C838        C  0.06781500  0.88703491  0.92338454     0.16500
O839        O  0.09948053  0.95454721  0.93227046    -0.25900
C840        C  0.06456869  0.93072701  0.94405553     0.06300
C841        C  0.04367093  0.88835161  0.93942317    -0.30700
O842        O  0.09079156  0.83764528  0.87994772    -0.22600
C843        C  0.12413233  0.86204739  0.86717072    -0.02600
C844        C  0.14661965  0.90393596  0.87302553    -0.17000
H845        H  0.15723095  0.96993259  0.90017420     0.21000
H846        H  0.03460845  0.82174625  0.91333562     0.19400
H847        H  0.01371673  0.86272234  0.94576816     0.19300
H848        H  0.17590217  0.92964976  0.86610941     0.15200
C849        C  0.34881089  0.89301741  0.77200650     0.30600
C850        C  0.30466358  0.86472069  0.77076471    -0.35700
C851        C  0.28220011  0.86453792  0.78938107     0.16600
C852        C  0.30220692  0.89016926  0.80777897     0.22400
C853        C  0.34592249  0.91829275  0.80894798    -0.33800
C854        C  0.36817418  0.91875228  0.79043083     0.16500
O855        O  0.37598942  0.90049788  0.75616030    -0.25900
C856        C  0.41301387  0.93200251  0.76438689     0.06300
C857        C  0.40993210  0.94402368  0.78585980    -0.30700
O858        O  0.27599992  0.88504241  0.82343137    -0.22600
C859        C  0.23828119  0.85578400  0.81533430    -0.02600
C860        C  0.23998181  0.84191131  0.79395023    -0.17000
H861        H  0.28900962  0.84493042  0.75619641     0.21000
H862        H  0.36147703  0.93887355  0.82325704     0.19400
H863        H  0.43438815  0.96947391  0.79607405     0.19300
H864        H  0.21420174  0.81806667  0.78362027     0.15200
C865        C  0.09688772  0.89796059  0.80902218     0.30600
C866        C  0.08522671  0.92610662  0.81036441    -0.35700
C867        C  0.06528258  0.92854087  0.79125315     0.16600
C868        C  0.05721762  0.90468904  0.77224831     0.22400
C869        C  0.06890864  0.87657785  0.77091054    -0.33800
C870        C  0.08915083  0.87437647  0.78995045     0.16500
O871        O  0.11548308  0.89050135  0.82496602    -0.25900
C872        C  0.11999800  0.86182572  0.81611641     0.06300
C873        C  0.10434339  0.85078586  0.79422432    -0.30700
O874        O  0.03933706  0.91268215  0.75613050    -0.22600
C875        C  0.03634242  0.94252391  0.76466054    -0.02600
C876        C  0.05148933  0.95321534  0.78666137    -0.17000
H877        H  0.09152206  0.94496417  0.82522606     0.21000
H878        H  0.06302168  0.85805949  0.75595760     0.19400
H879        H  0.10322135  0.82795595  0.78328424     0.19300
H880        H  0.06898905  0.48562807  0.79520140     0.15200
C881        C  0.05426707  0.62234953  0.77507807     0.30600
C882        C  0.05987273  0.66112333  0.77473587    -0.35700
C883        C  0.08179492  0.68750995  0.79304398     0.16600
C884        C  0.09699857  0.67640627  0.81056438     0.22400
C885        C  0.09203589  0.63777157  0.81070408    -0.33800
C886        C  0.07003402  0.61129642  0.79231898     0.16500
O887        O  0.03499344  0.59327727  0.75952179    -0.25900
C888        C  0.03885592  0.56330482  0.76658371     0.06300
C889        C  0.05991259  0.57244108  0.78708448    -0.30700
O890        O  0.11539675  0.70550901  0.82628092    -0.22600
C891        C  0.11201685  0.73557364  0.81862882    -0.02600
C892        C  0.09187009  0.72632909  0.79790857    -0.17000
H893        H  0.04787354  0.67003054  0.76113467     0.21000
H894        H  0.10421057  0.62891451  0.82423550     0.19400
H895        H  0.06770346  0.55380940  0.79633999     0.19300
H896        H  0.08500316  0.74515268  0.78810824     0.15200
C897        C  0.08385339  0.66029366  0.55512157     0.30600
C898        C  0.11904125  0.68904420  0.56807081    -0.35700
C899        C  0.11116739  0.70534238  0.58670726     0.16600
C900        C  0.07150843  0.69453141  0.59214992     0.22400
C901        C  0.03621163  0.66561513  0.57917675    -0.33800
C902        C  0.04403653  0.64902801  0.56054880     0.16500
O903        O  0.08392020  0.64007912  0.53749539    -0.25900
C904        C  0.04371258  0.61557394  0.53148457     0.06300
C905        C  0.01729824  0.61975688  0.54514908    -0.30700
O906        O  0.07208284  0.71618707  0.60933004    -0.22600
C907        C  0.11245854  0.74039396  0.61506524    -0.02600
C908        C  0.13821048  0.73512923  0.60159265    -0.17000
H909        H  0.15035684  0.69812618  0.56387262     0.21000
H910        H  0.00499831  0.65700440  0.58318888     0.19400
H911        H  0.48328052  0.60246605  0.54438762     0.19300
H912        H  0.17219245  0.75298785  0.60172180     0.15200
C913        C  0.26072446  0.86141446  0.58012441     0.30600
C914        C  0.26889724  0.85299350  0.55864084    -0.35700
C915        C  0.30750487  0.88406843  0.54931900     0.16600
C916        C  0.33640686  0.92093371  0.56035843     0.22400
C917        C  0.32828793  0.92924973  0.58201619    -0.33800
C918        C  0.28938167  0.89811932  0.59134710     0.16500
O919        O  0.22569622  0.83742593  0.59137568    -0.25900
C920        C  0.23180046  0.85849449  0.61029182     0.06300
C921        C  0.27082742  0.89684307  0.61111627    -0.30700
O922        O  0.37009721  0.94597320  0.54809203    -0.22600
C923        C  0.36243286  0.92474985  0.52898050    -0.02600
C924        C  0.32397614  0.88604045  0.52887907    -0.17000
H925        H  0.24630788  0.82449788  0.54962657     0.21000
H926        H  0.35037654  0.95821436  0.59078803     0.19400
H927        H  0.28305176  0.92087596  0.62393934     0.19300
H928        H  0.31004316  0.86283359  0.51556884     0.15200
C929        C  0.09778203  0.93607954  0.56839827     0.30600
C930        C  0.12137451  0.94267030  0.58787640    -0.35700
C931        C  0.11554848  0.90693573  0.59736078     0.16600
C932        C  0.08863986  0.86754977  0.58818507     0.22400
C933        C  0.06467187  0.86092244  0.56889514    -0.33800
C934        C  0.07047596  0.89662208  0.55942477     0.16500
O935        O  0.09772394  0.96487114  0.55697841    -0.25900
C936        C  0.07016281  0.94357241  0.54046343     0.06300
C937        C  0.05222631  0.90097256  0.54110448    -0.30700
O938        O  0.09040690  0.83905004  0.59878320    -0.22600
C939        C  0.11811744  0.86032442  0.61517860    -0.02600
C940        C  0.13483795  0.90267033  0.61520356    -0.17000
H941        H  0.14298684  0.97348435  0.59500036     0.21000
H942        H  0.04353265  0.83019215  0.56157832     0.19400
H943        H  0.02812902  0.87667022  0.53020453     0.19300
H944        H  0.15938449  0.92692320  0.62594209     0.15200
C945        C  0.07781362  0.67504358  0.67361498     0.30600
C946        C  0.04771101  0.63149579  0.67331694    -0.35700
C947        C  0.05048372  0.60892142  0.69083227     0.16600
C948        C  0.08088927  0.62799016  0.70743546     0.22400
C949        C  0.11087104  0.67153541  0.70776464    -0.33800
C950        C  0.10795322  0.69414430  0.69034372     0.16500
O951        O  0.08160969  0.70187319  0.65859290    -0.25900
C952        C  0.11443671  0.73889687  0.66577275     0.06300
C953        C  0.13191043  0.73595248  0.68560354    -0.30700
O954        O  0.07688725  0.60130073  0.72263210    -0.22600
C955        C  0.04319842  0.56446745  0.71593052    -0.02600
C956        C  0.02580745  0.56731754  0.69600417    -0.17000
H957        H  0.02372156  0.61630247  0.66034845     0.21000
H958        H  0.13461046  0.68677123  0.72084892     0.19400
H959        H  0.15931034  0.76070087  0.69465326     0.19300
H960        H  0.99781116  0.54271735  0.68726864     0.15200
C961        C  0.35571108  0.92564352  0.70532311     0.30600
C962        C  0.31547086  0.91733546  0.70601603    -0.35700
C963        C  0.28952687  0.89575798  0.68748856     0.16600
C964        C  0.30239568  0.88341613  0.66947416     0.22400
C965        C  0.34272835  0.89170199  0.66879218    -0.33800
C966        C  0.36867888  0.91311369  0.68744312     0.16500
O967        O  0.38424406  0.94387878  0.72130331    -0.25900
C968        C  0.41566610  0.94231098  0.71393434     0.06300
C969        C  0.40819545  0.92426809  0.69270041    -0.30700
O970        O  0.27291939  0.86364413  0.65397776    -0.22600
C971        C  0.24093894  0.86355428  0.66213311    -0.02600
C972        C  0.24931221  0.88275025  0.68303706    -0.17000
H973        H  0.30495465  0.92652084  0.72017879     0.21000
H974        H  0.35292031  0.88173257  0.65484651     0.19400
H975        H  0.42811780  0.91859866  0.68305862     0.19300
H976        H  0.22904648  0.88712893  0.69325338     0.15200
C977        C  0.08448806  0.93633946  0.70492526     0.30600
C978        C  0.11702336  0.93027838  0.70490316    -0.35700
C979        C  0.11398585  0.90271297  0.68845863     0.16600
C980        C  0.08148219  0.88318915  0.67297979     0.22400
C981        C  0.04932454  0.88958947  0.67284990    -0.33800
C982        C  0.05209628  0.91667632  0.68938261     0.16500
O983        O  0.07895650  0.95765134  0.71996745    -0.25900
C984        C  0.04243895  0.95126548  0.71406361     0.06300
C985        C  0.02470216  0.92665523  0.69489981    -0.30700
O986        O  0.08473527  0.85904533  0.65899078    -0.22600
C987        C  0.11965142  0.86273414  0.66551047    -0.02600
C988        C  0.13918734  0.88936451  0.68391198    -0.17000
H989        H  0.14222484  0.94507136  0.71723290     0.21000
H990        H  0.02344412  0.87381966  0.66094634     0.19400
H991        H  0.49477786  0.91556618  0.68703236     0.19300
H992        H  0.16839505  0.89875569  0.69209307     0.15200
C993        C  0.65824314  0.32137844  0.61898982     0.46300
H994        H  0.65643772  0.32034244  0.60029357    -0.02700
C995        C  0.66222106  0.32412027  0.66268560     0.46400
H996        H  0.66389465  0.32513829  0.68134137    -0.02700
C997        C  0.63499539  0.27849336  0.62970698    -0.16400
C998        C  0.70295646  0.34447153  0.62806933    -0.16200
C999        C  0.64000128  0.34325559  0.62947461    -0.16500
C1000       C  0.63652997  0.27909470  0.65276312    -0.16500
C1001       C  0.70550795  0.34607139  0.65108229    -0.16100
C1002       C  0.64177895  0.34508565  0.65250277    -0.16400
C1003       C  0.65603204  0.31782814  0.82120207     0.46300
H1004       H  0.65550992  0.31686956  0.80255312    -0.02700
C1005       C  0.65640719  0.31962697  0.86490243     0.46400
H1006       H  0.65647445  0.32063026  0.88361161    -0.02700
C1007       C  0.63791016  0.34121514  0.83125461    -0.16400
C1008       C  0.62992158  0.27399137  0.83219911    -0.16200
C1009       C  0.70096001  0.33969992  0.83182650    -0.16500
C1010       C  0.63890169  0.34209750  0.85431794    -0.16500
C1011       C  0.63010327  0.27560665  0.85523104    -0.16100
C1012       C  0.70005908  0.34005878  0.85500963    -0.16400
C1013       C  0.50125033  0.48175502  0.71947322     0.46300
H1014       H  0.50182661  0.48198771  0.70080190    -0.02700
C1015       C  0.49996620  0.48140773  0.76332199     0.46400
H1016       H  0.49989102  0.48151968  0.78196859    -0.02700
C1017       C  0.51897279  0.02610025  0.72947893    -0.16400
C1018       C  0.95681795  0.45861462  0.72937637    -0.16200
C1019       C  0.52178410  0.46150885  0.73026625    -0.16500
C1020       C  0.51767169  0.02446970  0.75258016    -0.16500
C1021       C  0.95560060  0.45763762  0.75258696    -0.16100
C1022       C  0.52058819  0.46085452  0.75332763    -0.16400
C1023       C  0.80913229  0.13534235  0.36384639     0.46300
H1024       H  0.80956596  0.13484943  0.38255582    -0.02700
C1025       C  0.80810781  0.13603788  0.32015418     0.46400
H1026       H  0.80783707  0.13608781  0.30150957    -0.02700
C1027       C  0.83327405  0.17922069  0.35411828    -0.16400
C1028       C  0.82782059  0.11406907  0.35335772    -0.16200
C1029       C  0.76505111  0.11285191  0.35387266    -0.16500
C1030       C  0.83274942  0.18033444  0.33102886    -0.16500
C1031       C  0.82767567  0.11392512  0.33032482    -0.16100
C1032       C  0.76372090  0.11324270  0.33075131    -0.16400
C1033       C  0.80096242  0.12812466  0.11642018     0.46300
H1034       H  0.79873515  0.12510705  0.09780729    -0.02700
C1035       C  0.80447037  0.13279219  0.16004826     0.46400
H1036       H  0.80584130  0.13501807  0.17869226    -0.02700
C1037       C  0.82547700  0.17288520  0.12500348    -0.16400
C1038       C  0.75805840  0.10648465  0.12734265    -0.16200
C1039       C  0.82256681  0.10934783  0.12692107    -0.16500
C1040       C  0.82759211  0.17623488  0.14809059    -0.16500
C1041       C  0.75907009  0.10849800  0.15028697    -0.16100
C1042       C  0.82395817  0.11049278  0.15002118    -0.16400
C1043       C  0.96979606  0.47182067  0.21793798     0.46300
H1044       H  0.97013673  0.47061300  0.19929044    -0.02700
C1045       C  0.96837050  0.47372486  0.26173014     0.46400
H1046       H  0.96819606  0.47491828  0.28036428    -0.02700
C1047       C  0.94584208  0.42816993  0.22861824    -0.16400
C1048       C  0.51395325  0.49574637  0.22891073    -0.16200
C1049       C  0.94859660  0.49237238  0.22733107    -0.16500
C1050       C  0.94433303  0.42907791  0.25180302    -0.16500
C1051       C  0.51302856  0.49672426  0.25201227    -0.16100
C1052       C  0.94855501  0.49424886  0.25047693    -0.16400
O1053       O  0.54608516  0.07079695  0.97314631    -0.80100
O1054       O  0.98412362  0.40512009  0.01104378    -0.64700
O1055       O  0.50647538  0.49452017  0.97296731    -1.11300
C1056       C  0.91087449  0.99205146  0.02558614     1.06800
O1057       O  0.91751231  0.37899936  0.00633732    -0.77900
O1058       O  0.88341312  0.41579332  0.98949506    -0.65500
Ni1059     Ni  0.55388266  0.02802585  0.96506292     1.34900
C1060       C  0.89370771  0.43911299  0.97255460     0.85600
O1061       O  0.52765824  0.43718443  0.97241225    -0.78500
O1062       O  0.57356477  0.49882630  0.95553925    -0.88800
C1063       C  0.94598702  0.37640907  0.01469514     0.85100
O1064       O  0.57672588  0.03429307  0.99434184    -0.67000
O1065       O  0.90161394  0.46103822  0.02836169    -0.86300
C1066       C  0.56752881  0.00780943  0.00951025     0.86000
C1067       C  0.55699606  0.45997860  0.95847846     1.07500
H1068       H  0.98147576  0.47728274  0.02344602     0.39300
O1069       O  0.96656267  0.46496153  0.00944794    -1.08900
O1070       O  0.92766149  0.47513827  0.97138788    -0.65600
Ni1071     Ni  0.96717094  0.99981630  0.99000872     1.26300
O1072       O  0.54467710  0.48330089  0.01102478    -0.65800
O1073       O  0.93715640  0.01348849  0.00993662    -0.78100
C1074       C  0.51663096  0.07265857  0.96545151     0.85400
O1075       O  0.97881607  0.04404259  0.97002466    -0.65300
Ni1076     Ni  0.91071081  0.42102145  0.01709280     1.27400
Ni1077     Ni  0.99700458  0.45013863  0.99154489     1.26100
H1078       H  0.99196108  0.48257659  0.95882663     0.39900
O1079       O  0.91690840  0.37937366  0.47798811    -0.80100
O1080       O  0.98721367  0.05564165  0.51089791    -0.64700
O1081       O  0.96618826  0.46418692  0.47382536    -1.11300
C1082       C  0.56093546  0.46245368  0.52442811     1.06800
O1083       O  0.55316601  0.08064860  0.50496993    -0.77900
O1084       O  0.58824838  0.04413819  0.48889307    -0.65500
Ni1085     Ni  0.90967154  0.42069721  0.46653909     1.34900
C1086       C  0.57709441  0.01962337  0.47226231     0.85600
O1087       O  0.94085957  0.02094750  0.47251739    -0.78500
O1088       O  0.90049447  0.46054573  0.45459343    -0.88800
C1089       C  0.52586844  0.08384126  0.51429333     0.85100
O1090       O  0.88370390  0.41789454  0.49411898    -0.67000
O1091       O  0.57689212  0.50114727  0.52762594    -0.86300
C1092       C  0.89573324  0.44132209  0.51130688     0.86000
C1093       C  0.91317044  0.99860166  0.45738007     1.07500
H1094       H  0.99591987  0.48452384  0.52392827     0.39300
O1095       O  0.50925613  0.49568141  0.50959111    -1.08900
O1096       O  0.54434289  0.48218939  0.47100075    -0.65600
Ni1097     Ni  0.99839850  0.45035850  0.49144221     1.26300
O1098       O  0.93074724  0.47652704  0.51252796    -0.65800
O1099       O  0.53134058  0.43914282  0.51031055    -0.78100
C1100       C  0.94421608  0.37549656  0.46924103     0.85400
O1101       O  0.98290174  0.40347913  0.47265097    -0.65300
Ni1102     Ni  0.56212122  0.04070942  0.51653762     1.27400
Ni1103     Ni  0.97342051  0.00971188  0.49171311     1.26100
H1104       H  0.98014453  0.47580449  0.45970596     0.39900
C1105       C  0.67185705  0.04832232  0.09129118     0.30600
C1106       C  0.64139865  0.01313017  0.07876973    -0.35700
C1107       C  0.62461848  0.02102180  0.06011076     0.16600
C1108       C  0.63730743  0.06077602  0.05410315     0.22400
C1109       C  0.66698048  0.09570211  0.06683941    -0.33800
C1110       C  0.68334789  0.08779923  0.08555347     0.16500
O1111       O  0.69474797  0.04900806  0.10804189    -0.25900
C1112       C  0.72045486  0.08934381  0.11318968     0.02100
C1113       C  0.71455110  0.11475311  0.09990578    -0.30700
O1114       O  0.61930499  0.06135376  0.03543860    -0.22600
C1115       C  0.59434031  0.02143327  0.02952244    -0.02600
C1116       C  0.59607330  0.99478325  0.04426979    -0.17000
H1117       H  0.63240233  0.98203465  0.08285236     0.21000
H1118       H  0.67748648  0.12700649  0.06210948     0.19400
H1119       H  0.73254999  0.14845967  0.09993188     0.19300
H1120       H  0.57933428  0.96118634  0.04320263     0.15200
C1121       C  0.88953324  0.26079821  0.09088597     0.30600
C1122       C  0.92620394  0.29849234  0.08388640    -0.35700
C1123       C  0.92566279  0.31074067  0.06169616     0.16600
C1124       C  0.89116224  0.28772371  0.04763858     0.22400
C1125       C  0.85490228  0.25020064  0.05454213    -0.33800
C1126       C  0.85563264  0.23798397  0.07648790     0.16500
O1127       O  0.88317227  0.24231162  0.11055584    -0.25900
C1128       C  0.84464008  0.20735450  0.10852182     0.06300
C1129       C  0.82628053  0.20336839  0.08767234    -0.30700
O1130       O  0.89543840  0.30655560  0.02852456    -0.22600
C1131       C  0.93349417  0.34189377  0.02998490    -0.02600
C1132       C  0.95406121  0.34614598  0.05017982    -0.17000
H1133       H  0.95305930  0.31704213  0.09495507     0.21000
H1134       H  0.82765809  0.23208626  0.04365778     0.19400
H1135       H  0.79627397  0.17781048  0.08116052     0.19300
H1136       H  0.98361467  0.37311100  0.05633413     0.15200
C1137       C  0.88807028  0.05370963  0.05646506     0.30600
C1138       C  0.88671517  0.08799325  0.06175583    -0.35700
C1139       C  0.86813527  0.08588473  0.08239186     0.16600
C1140       C  0.85211516  0.05257435  0.09689582     0.22400
C1141       C  0.85325674  0.01832370  0.09156306    -0.33800
C1142       C  0.87152310  0.02031149  0.07093580     0.16500
O1143       O  0.90422744  0.04881434  0.03818277    -0.25900
C1144       C  0.89732625  0.01154287  0.04105797     0.06300
C1145       C  0.87709113  0.99259609  0.06109204    -0.30700
O1146       O  0.83522597  0.05667417  0.11500939    -0.22600
C1147       C  0.84061894  0.09317915  0.11206780    -0.02600
C1148       C  0.86078827  0.11262657  0.09208342    -0.17000
H1149       H  0.89901869  0.11429937  0.05056949     0.21000
H1150       H  0.84046755  0.99178350  0.10262400     0.19400
H1151       H  0.86922965  0.46763977  0.06515876     0.19300
H1152       H  0.86806695  0.14186708  0.08544412     0.15200
C1153       C  0.89850196  0.34404245  0.18954251     0.30600
C1154       C  0.87390588  0.31997679  0.17085710    -0.35700
C1155       C  0.86612256  0.28009358  0.16867729     0.16600
C1156       C  0.88147882  0.26493410  0.18375852     0.22400
C1157       C  0.90657975  0.28924312  0.20212626    -0.33800
C1158       C  0.91431319  0.32893451  0.20432421     0.16500
O1159       O  0.90797303  0.38123090  0.19568604    -0.25900
C1160       C  0.92973073  0.38971571  0.21481799     0.06300
C1161       C  0.93549126  0.35866792  0.22053996    -0.30700
O1162       O  0.86960735  0.22650043  0.17888197    -0.22600
C1163       C  0.84667540  0.21683312  0.16019980    -0.02600
C1164       C  0.84321724  0.24899513  0.15321768    -0.17000
H1165       H  0.86106610  0.33117907  0.15909817     0.21000
H1166       H  0.91866980  0.27769994  0.21415194     0.19400
H1167       H  0.95193297  0.35761223  0.23501097     0.19300
H1168       H  0.82596513  0.24928063  0.13891820     0.15200
C1169       C  0.88058686  0.07156215  0.17181836     0.30600
C1170       C  0.91153774  0.06322871  0.17182310    -0.35700
C1171       C  0.91087829  0.03972738  0.18993399     0.16600
C1172       C  0.88155026  0.02519184  0.20681181     0.22400
C1173       C  0.85053833  0.03347915  0.20680735    -0.33800
C1174       C  0.85146673  0.05738205  0.18879284     0.16500
O1175       O  0.87542333  0.09269798  0.15642238    -0.25900
C1176       C  0.84271088  0.09253464  0.16356614     0.06300
C1177       C  0.82668287  0.07115268  0.18376801    -0.30700
O1178       O  0.89347028  0.50365697  0.21999823    -0.22600
C1179       C  0.92668217  0.50509363  0.21279126    -0.02600
C1180       C  0.93708167  0.02795997  0.19548030    -0.17000
H1181       H  0.93480080  0.07464826  0.15869566     0.21000
H1182       H  0.83649577  0.52403489  0.21968244     0.19400
H1183       H  0.79986686  0.06541393  0.19299044     0.19300
H1184       H  0.96469569  0.03498076  0.18658902     0.15200
C1185       C  0.65952535  0.07326827  0.17191894     0.30600
C1186       C  0.61991468  0.06692642  0.17214170    -0.35700
C1187       C  0.59350015  0.04331916  0.19007358     0.16600
C1188       C  0.60521936  0.02680770  0.20647472     0.22400
C1189       C  0.64478527  0.03316084  0.20624832    -0.33800
C1190       C  0.67141722  0.05724733  0.18851996     0.16500
O1191       O  0.68895254  0.09401949  0.15667013    -0.25900
C1192       C  0.72039384  0.09177627  0.16369761     0.06300
C1193       C  0.71132282  0.06944816  0.18352381    -0.30700
O1194       O  0.58734513  0.51711275  0.22448423    -0.22600
C1195       C  0.55328892  0.51290550  0.21579553    -0.02600
C1196       C  0.55458363  0.03312665  0.19588272    -0.17000
H1197       H  0.61054486  0.07986967  0.15935744     0.21000
H1198       H  0.66966453  0.54141880  0.22466529     0.19400
H1199       H  0.73068028  0.06204442  0.19246574     0.19300
H1200       H  0.53573852  0.04165720  0.18739619     0.15200
C1201       C  0.63126750  0.03417505  0.42222039     0.30600
C1202       C  0.64097975  0.02307900  0.40189464    -0.35700
C1203       C  0.67616425  0.05566617  0.39048675     0.16600
C1204       C  0.69960386  0.09617481  0.39848637     0.22400
C1205       C  0.69019926  0.10714977  0.41875541    -0.33800
C1206       C  0.65552865  0.07470223  0.43021033     0.16500
O1207       O  0.60018512  0.00898729  0.43590826    -0.25900
C1208       C  0.60514781  0.03387902  0.45285849     0.06300
C1209       C  0.63913417  0.07497486  0.45020594    -0.30700
O1210       O  0.73211259  0.12135481  0.38588532    -0.22600
C1211       C  0.72966686  0.09716347  0.36938393    -0.02600
C1212       C  0.69585983  0.05562823  0.37153865    -0.17000
H1213       H  0.62288297  0.99129458  0.39563501     0.21000
H1214       H  0.70916281  0.13869821  0.42535482     0.19400
H1215       H  0.64995698  0.10130437  0.46134434     0.19300
H1216       H  0.68827515  0.02910701  0.36135593     0.15200
C1217       C  0.88756450  0.29188370  0.43219195     0.30600
C1218       C  0.85075839  0.25893602  0.42194079    -0.35700
C1219       C  0.85565610  0.24642173  0.40084349     0.16600
C1220       C  0.89402739  0.26449755  0.39048574     0.22400
C1221       C  0.93100483  0.29770690  0.40076077    -0.33800
C1222       C  0.92616460  0.31038971  0.42197374     0.16500
O1223       O  0.88961062  0.31054975  0.45108776    -0.25900
C1224       C  0.93009627  0.34128901  0.45321920     0.06300
C1225       C  0.95449601  0.34250159  0.43572180    -0.30700
O1226       O  0.89124616  0.24533056  0.37149703    -0.22600
C1227       C  0.85043551  0.21504002  0.36968338    -0.02600
C1228       C  0.82702140  0.21466883  0.38738384    -0.17000
H1229       H  0.82033965  0.24423684  0.42980340     0.21000
H1230       H  0.96137072  0.31245970  0.39285338     0.19400
H1231       H  0.98745297  0.36583523  0.43258572     0.19300
H1232       H  0.79405006  0.19257886  0.39068569     0.15200
C1233       C  0.87537718  0.09016976  0.39451926     0.30600
C1234       C  0.90285077  0.09846473  0.41242814    -0.35700
C1235       C  0.89653009  0.06344729  0.42321664     0.16600
C1236       C  0.86553097  0.02311210  0.41668470     0.22400
C1237       C  0.83786974  0.01480788  0.39889973    -0.33800
C1238       C  0.84409888  0.04980085  0.38818729     0.16500
O1239       O  0.87486964  0.11814432  0.38246736    -0.25900
C1240       C  0.84340185  0.09536038  0.36800622     0.06300
C1241       C  0.82256871  0.05266758  0.37104526    -0.30700
O1242       O  0.86645849  0.99511654  0.42841905    -0.22600
C1243       C  0.89813913  0.01774433  0.44281625    -0.02600
C1244       C  0.91795814  0.06048836  0.44044913    -0.17000
H1245       H  0.92740547  0.12997518  0.41757161     0.21000
H1246       H  0.81339296  0.98329746  0.39370437     0.19400
H1247       H  0.79480328  0.02757831  0.36237471     0.19300
H1248       H  0.94531531  0.08559772  0.44936708     0.15200
C1249       C  0.88181740  0.32812872  0.27504913     0.30600
C1250       C  0.85448266  0.28435214  0.27409364    -0.35700
C1251       C  0.85490055  0.26289916  0.29292631     0.16600
C1252       C  0.87966008  0.28321332  0.31160371     0.22400
C1253       C  0.90643213  0.32696333  0.31271675    -0.33800
C1254       C  0.90677434  0.34837313  0.29368888     0.16500
O1255       O  0.89004472  0.35392717  0.25838055    -0.25900
C1256       C  0.92129360  0.39116512  0.26618228     0.06300
C1257       C  0.93225810  0.38963456  0.28831653    -0.30700
O1258       O  0.87584496  0.25715330  0.32708482    -0.22600
C1259       C  0.84848153  0.21943122  0.31828781    -0.02600
C1260       C  0.83450646  0.22118870  0.29694246    -0.17000
H1261       H  0.83568742  0.26812876  0.25928188     0.21000
H1262       H  0.92684208  0.34310066  0.32705905     0.19400
H1263       H  0.95739785  0.41462199  0.29843528     0.19300
H1264       H  0.81216096  0.19565424  0.28606508     0.15200
C1265       C  0.90964829  0.05251835  0.27509472     0.30600
C1266       C  0.90171326  0.08339878  0.27446318    -0.35700
C1267       C  0.87811103  0.08332590  0.29224104     0.16600
C1268       C  0.86388903  0.05509578  0.30958332     0.22400
C1269       C  0.87179584  0.02408903  0.31024845    -0.33800
C1270       C  0.89505532  0.02390637  0.29229647     0.16500
O1271       O  0.92942876  0.04601134  0.25962358    -0.25900
C1272       C  0.93213896  0.51489876  0.26367991     0.06300
C1273       C  0.91571164  0.50332398  0.28525705    -0.30700
O1274       O  0.84346524  0.06145638  0.32473836    -0.22600
C1275       C  0.84429643  0.09401178  0.31707213    -0.02600
C1276       C  0.86517719  0.10872056  0.29672973    -0.17000
H1277       H  0.91275709  0.10560204  0.26087050     0.21000
H1278       H  0.87631267  0.51160201  0.32368083     0.19400
H1279       H  0.91251369  0.47894024  0.29565400     0.19300
H1280       H  0.87139563  0.13522470  0.28715550     0.15200
C1281       C  0.61269465  0.05877161  0.27447217     0.30600
C1282       C  0.65673412  0.08454871  0.27273034    -0.35700
C1283       C  0.67935078  0.08664631  0.29182272     0.16600
C1284       C  0.65977696  0.06554127  0.31130021     0.22400
C1285       C  0.62148779  0.52202144  0.30696696    -0.33800
C1286       C  0.59328902  0.03716682  0.29388160     0.16500
O1287       O  0.58561528  0.04941935  0.25810942    -0.25900
C1288       C  0.55121089  0.51759508  0.26651273     0.06300
C1289       C  0.55607597  0.49858812  0.28481121    -0.30700
O1290       O  0.68663957  0.07167547  0.32705402    -0.22600
C1291       C  0.72419194  0.09682395  0.31777886    -0.02600
C1292       C  0.72157450  0.10702531  0.29566565    -0.17000
H1293       H  0.67217699  0.10064856  0.25732708     0.21000
H1294       H  0.60804822  0.49544141  0.31804745     0.19400
H1295       H  0.53343177  0.46800536  0.29162888     0.19300
H1296       H  0.74680429  0.12690527  0.28418685     0.15200
C1297       C  0.59946353  0.21055602  0.90164929     0.30600
C1298       C  0.60559671  0.20014796  0.92299246    -0.35700
C1299       C  0.57076612  0.16475848  0.93259273     0.16600
C1300       C  0.53202804  0.14078869  0.92208551     0.22400
C1301       C  0.52555848  0.15182102  0.90062125    -0.33800
C1302       C  0.56099466  0.18745892  0.89079153     0.16500
O1303       O  0.62841791  0.24251010  0.88993105    -0.25900
C1304       C  0.60899878  0.24026428  0.87100798     0.06300
C1305       C  0.56671719  0.20662710  0.87047746    -0.30700
O1306       O  0.50559116  0.10605269  0.93332518    -0.22600
C1307       C  0.52807906  0.10840792  0.95113759    -0.02600
C1308       C  0.56853299  0.14451531  0.95151922    -0.17000
H1309       H  0.63600318  0.21782730  0.93128654     0.21000
H1310       H  0.49566130  0.13315017  0.89188526     0.19400
H1311       H  0.54341954  0.19872550  0.85757794     0.19300
H1312       H  0.59401830  0.15266805  0.96297125     0.15200
C1313       C  0.83751955  0.42035052  0.92248096     0.30600
C1314       C  0.82703698  0.43009291  0.90198282    -0.35700
C1315       C  0.79065352  0.39717192  0.89124795     0.16600
C1316       C  0.76661275  0.35738302  0.89995077     0.22400
C1317       C  0.77695131  0.34767693  0.92044068    -0.33800
C1318       C  0.81296276  0.38063147  0.93126676     0.16500
O1319       O  0.86945838  0.44647250  0.93574053    -0.25900
C1320       C  0.86488164  0.42310508  0.95326222     0.06300
C1321       C  0.83030217  0.38195474  0.95138546    -0.30700
O1322       O  0.73293743  0.33191880  0.88770425    -0.22600
C1323       C  0.73561122  0.35539885  0.87071585    -0.02600
C1324       C  0.77034245  0.39659122  0.87235452    -0.17000
H1325       H  0.84540294  0.46129416  0.89513923     0.21000
H1326       H  0.75770120  0.31684374  0.92769307     0.19400
H1327       H  0.81951526  0.35673383  0.96318363     0.19300
H1328       H  0.77826860  0.42270765  0.86183700     0.15200
C1329       C  0.60106208  0.43403027  0.91668733     0.30600
C1330       C  0.62600313  0.44151724  0.89791247    -0.35700
C1331       C  0.62079211  0.40630117  0.88802495     0.16600
C1332       C  0.59283468  0.36639685  0.89596094     0.22400
C1333       C  0.56785969  0.35887887  0.91479968    -0.33800
C1334       C  0.57326329  0.39421933  0.92480643     0.16500
O1335       O  0.60013167  0.46236361  0.92810342    -0.25900
C1336       C  0.57156752  0.44057333  0.94383975     0.06300
C1337       C  0.55382993  0.39796664  0.94269951    -0.30700
O1338       O  0.59430929  0.33831419  0.88454072    -0.22600
C1339       C  0.62302997  0.36053357  0.86891536    -0.02600
C1340       C  0.64118179  0.40306330  0.87056974    -0.17000
H1341       H  0.64799308  0.47263907  0.89149779     0.21000
H1342       H  0.54601559  0.32777026  0.92126757     0.19400
H1343       H  0.52905456  0.37330859  0.95291434     0.19300
H1344       H  0.66693593  0.42806070  0.86096948     0.15200
C1345       C  0.85113463  0.40026940  0.77356003     0.30600
C1346       C  0.80689241  0.37529069  0.77187525    -0.35700
C1347       C  0.78488274  0.37088452  0.79163293     0.16600
C1348       C  0.80516738  0.38937159  0.81164463     0.22400
C1349       C  0.84936274  0.41463177  0.81329161    -0.33800
C1350       C  0.87134577  0.41948739  0.79347597     0.16500
O1351       O  0.87772868  0.40968139  0.75703288    -0.25900
C1352       C  0.91575399  0.43630853  0.76610410     0.06300
C1353       C  0.91350416  0.44298004  0.78897513    -0.30700
O1354       O  0.77868791  0.38085424  0.82804803    -0.22600
C1355       C  0.74059255  0.35685538  0.81866498    -0.02600
C1356       C  0.74266412  0.34972406  0.79584910    -0.17000
H1357       H  0.79079584  0.36079615  0.75615791     0.21000
H1358       H  0.86546532  0.42983168  0.82889984     0.19400
H1359       H  0.93893567  0.46332061  0.80051145     0.19300
H1360       H  0.71698010  0.33127719  0.78409814     0.15200
C1361       C  0.59927312  0.39760110  0.81008997     0.30600
C1362       C  0.59346686  0.43000618  0.81000711    -0.35700
C1363       C  0.56786362  0.42858352  0.79276345     0.16600
C1364       C  0.54907115  0.39721236  0.77677443     0.22400
C1365       C  0.55427426  0.36427807  0.77712849    -0.33800
C1366       C  0.58035420  0.36597652  0.79428210     0.16500
O1367       O  0.62265246  0.39357643  0.82444566    -0.25900
C1368       C  0.61906627  0.35901523  0.81795467     0.06300
C1369       C  0.59313938  0.34044344  0.79912417    -0.30700
O1370       O  0.52893393  0.40368100  0.76125458    -0.22600
C1371       C  0.53493354  0.43966326  0.76735197    -0.02600
C1372       C  0.55841195  0.45625839  0.78704416    -0.17000
H1373       H  0.60869712  0.45512401  0.82225671     0.21000
H1374       H  0.54000517  0.33976915  0.76452308     0.19400
H1375       H  0.58412507  0.31183041  0.79068298     0.19300
H1376       H  0.55381305  0.97701561  0.79724842     0.15200
C1377       C  0.54612900  0.12004700  0.77617018     0.30600
C1378       C  0.55387489  0.15987703  0.77584422    -0.35700
C1379       C  0.57661922  0.18592780  0.79420959     0.16600
C1380       C  0.59008213  0.17325607  0.81183397     0.22400
C1381       C  0.58235862  0.13342517  0.81213657    -0.33800
C1382       C  0.56008535  0.10755949  0.79362846     0.16500
O1383       O  0.52796848  0.09188252  0.76003515    -0.25900
C1384       C  0.53083230  0.06114072  0.76698210     0.06300
C1385       C  0.54985879  0.06881460  0.78800891    -0.30700
O1386       O  0.61056264  0.20246082  0.82732639    -0.22600
C1387       C  0.61051134  0.23439929  0.81951082    -0.02600
C1388       C  0.59019771  0.22609836  0.79883495    -0.17000
H1389       H  0.54373966  0.17014655  0.76197295     0.21000
H1390       H  0.59359817  0.12359847  0.82566933     0.19400
H1391       H  0.55717382  0.04973319  0.79717830     0.19300
H1392       H  0.58548056  0.24636192  0.78891709     0.15200
C1393       C  0.58256335  0.16437055  0.55303501     0.30600
C1394       C  0.61926345  0.19553567  0.56417664    -0.35700
C1395       C  0.61353861  0.20902295  0.58471546     0.16600
C1396       C  0.57445828  0.19352716  0.59364113     0.22400
C1397       C  0.53760357  0.16202589  0.58250643    -0.33800
C1398       C  0.54329678  0.14823572  0.56191508     0.16500
O1399       O  0.58095878  0.14559608  0.53431108    -0.25900
C1400       C  0.54016832  0.11705777  0.53097633     0.06300
C1401       C  0.51505861  0.11734946  0.54753087    -0.30700
O1402       O  0.57667166  0.21363332  0.61207468    -0.22600
C1403       C  0.61772207  0.24172959  0.61505319    -0.02600
C1404       C  0.64201821  0.23999847  0.59863719    -0.17000
H1405       H  0.65015602  0.20835743  0.55730797     0.21000
H1406       H  0.50672868  0.14947652  0.58929388     0.19400
H1407       H  0.98135740  0.09598093  0.54954627     0.19300
H1408       H  0.67560326  0.26075057  0.59633330     0.15200
C1409       C  0.76719484  0.36372055  0.58221497     0.30600
C1410       C  0.77568436  0.35462811  0.56110082    -0.35700
C1411       C  0.81358759  0.38597299  0.55149842     0.16600
C1412       C  0.84157571  0.42391098  0.56186310     0.22400
C1413       C  0.83307092  0.43303565  0.58323073    -0.33800
C1414       C  0.79481108  0.40136064  0.59294617     0.16500
O1415       O  0.73261738  0.33919650  0.59354228    -0.25900
C1416       C  0.73786325  0.36066316  0.61206957     0.06300
C1417       C  0.77596342  0.39992236  0.61266204    -0.30700
O1418       O  0.87474109  0.44887108  0.54924767    -0.22600
C1419       C  0.86741701  0.42636233  0.53067372    -0.02600
C1420       C  0.82992228  0.38702910  0.53125595    -0.17000
H1421       H  0.75381745  0.32528812  0.55257341     0.21000
H1422       H  0.85439307  0.46277761  0.59151307     0.19400
H1423       H  0.78722132  0.42425898  0.62523543     0.19300
H1424       H  0.81644598  0.36281640  0.51847619     0.15200
C1425       C  0.60549093  0.43741518  0.56677223     0.30600
C1426       C  0.62804662  0.44416626  0.58674827    -0.35700
C1427       C  0.62316119  0.40876253  0.59615615     0.16600
C1428       C  0.59836345  0.36968846  0.58634003     0.22400
C1429       C  0.57592670  0.36300006  0.56640173    -0.33800
C1430       C  0.58042729  0.39822998  0.55713173     0.16500
O1431       O  0.60340604  0.46545329  0.55581727    -0.25900
C1432       C  0.57666679  0.44392596  0.53899119     0.06300
C1433       C  0.56151899  0.40196463  0.53888094    -0.30700
O1434       O  0.59963407  0.34130651  0.59739083    -0.22600
C1435       C  0.62481521  0.36218875  0.61475628    -0.02600
C1436       C  0.64063499  0.40436436  0.61488770    -0.17000
H1437       H  0.64754340  0.47470453  0.59453509     0.21000
H1438       H  0.55614850  0.33239318  0.55873179     0.19400
H1439       H  0.53837722  0.37748586  0.52770763     0.19300
H1440       H  0.66327066  0.42842385  0.62641700     0.15200
C1441       C  0.57901200  0.17688629  0.67412014     0.30600
C1442       C  0.54808181  0.13370698  0.67356528    -0.35700
C1443       C  0.54886473  0.11068898  0.69139721     0.16600
C1444       C  0.57815848  0.12894770  0.70858286     0.22400
C1445       C  0.60906517  0.17225186  0.70919098    -0.33800
C1446       C  0.60814033  0.19535965  0.69137425     0.16500
O1447       O  0.58457211  0.20388201  0.65879817    -0.25900
C1448       C  0.61755829  0.24038000  0.66623786     0.06300
C1449       C  0.63339792  0.23706123  0.68660010    -0.30700
O1450       O  0.57241776  0.10164334  0.72381052    -0.22600
C1451       C  0.53875012  0.06543959  0.71643888    -0.02600
C1452       C  0.52309504  0.06915052  0.69616444    -0.17000
H1453       H  0.52501312  0.11908675  0.66012570     0.21000
H1454       H  0.63204688  0.18688514  0.72266984     0.19400
H1455       H  0.66051547  0.26142755  0.69598949     0.19300
H1456       H  0.49573552  0.04507710  0.68679928     0.15200
C1457       C  0.86184303  0.43123578  0.70512568     0.30600
C1458       C  0.82236334  0.42467797  0.70524320    -0.35700
C1459       C  0.79522649  0.40015043  0.68766879     0.16600
C1460       C  0.80653683  0.38395882  0.67086724     0.22400
C1461       C  0.84616980  0.39062104  0.67070506    -0.33800
C1462       C  0.87308011  0.41452713  0.68858460     0.16500
O1463       O  0.89055306  0.45037739  0.72094677    -0.25900
C1464       C  0.92007502  0.44491391  0.71492407     0.06300
C1465       C  0.91155800  0.42377491  0.69458994    -0.30700
O1466       O  0.77626434  0.36220506  0.65600746    -0.22600
C1467       C  0.74526866  0.36444761  0.66346603    -0.02600
C1468       C  0.75503531  0.38723341  0.68323055    -0.17000
H1469       H  0.81304862  0.43682500  0.71849774     0.21000
H1470       H  0.85495773  0.37727573  0.65787211     0.19400
H1471       H  0.92981580  0.41451180  0.68622429     0.19300
H1472       H  0.73579525  0.39420765  0.69255956     0.15200
C1473       C  0.58321518  0.42866325  0.70878705     0.30600
C1474       C  0.61418702  0.42041849  0.70936898    -0.35700
C1475       C  0.61430199  0.39763626  0.69106319     0.16600
C1476       C  0.58613320  0.38444879  0.67340058     0.22400
C1477       C  0.55544580  0.39288736  0.67276785    -0.33800
C1478       C  0.55513328  0.41532743  0.69107896     0.16500
O1479       O  0.57596483  0.44753991  0.72457737    -0.25900
C1480       C  0.54268210  0.44607576  0.71694872     0.06300
C1481       C  0.52872615  0.42683385  0.69602652    -0.30700
O1482       O  0.59174928  0.36387991  0.65799862    -0.22600
C1483       C  0.62391397  0.36364328  0.66574496    -0.02600
C1484       C  0.63914436  0.38395565  0.68640040    -0.17000
H1485       H  0.63613450  0.43044511  0.72328002     0.21000
H1486       H  0.53304174  0.38224357  0.65904236     0.19400
H1487       H  0.00214274  0.42085946  0.68631076     0.19300
H1488       H  0.66522934  0.38881612  0.69620771     0.15200
C1489       C  0.65220375  0.81962860  0.61836373     0.46300
H1490       H  0.64944560  0.81811475  0.59969501    -0.02700
C1491       C  0.65797537  0.82299553  0.66204436     0.46400
H1492       H  0.66022882  0.82426790  0.68068081    -0.02700
C1493       C  0.62948175  0.77706517  0.62937294    -0.16400
C1494       C  0.69743612  0.84280610  0.62683303    -0.16200
C1495       C  0.63427874  0.84151331  0.62923148    -0.16500
C1496       C  0.63206464  0.77775780  0.65236159    -0.16500
C1497       C  0.70087555  0.84491150  0.64990871    -0.16100
C1498       C  0.63707364  0.84375026  0.65219447    -0.16400
C1499       C  0.65472575  0.81826525  0.81910329     0.46300
H1500       H  0.65349003  0.81638530  0.80046715    -0.02700
C1501       C  0.65797226  0.82245449  0.86272922     0.46400
H1502       H  0.65940596  0.82478730  0.88141690    -0.02700
C1503       C  0.63783794  0.84280952  0.82922648    -0.16400
C1504       C  0.62938540  0.77508910  0.83086250    -0.16200
C1505       C  0.69983942  0.83987861  0.82894915    -0.16500
C1506       C  0.64009581  0.84447702  0.85223471    -0.16500
C1507       C  0.63099401  0.77801302  0.85389190    -0.16100
C1508       C  0.70062564  0.84148667  0.85207982    -0.16400
C1509       C  0.49798371  0.98306272  0.71816703     0.46300
H1510       H  0.49875111  0.98445957  0.69950858    -0.02700
C1511       C  0.49654411  0.98001784  0.76198435     0.46400
H1512       H  0.49585248  0.97869971  0.78061720    -0.02700
C1513       C  0.52424732  0.52573361  0.72980202    -0.16400
C1514       C  0.95335574  0.95701042  0.72798047    -0.16200
C1515       C  0.52078498  0.96465622  0.72818617    -0.16500
C1516       C  0.52358280  0.52544677  0.75294951    -0.16500
C1517       C  0.95241661  0.95469727  0.75107450    -0.16100
C1518       C  0.51978407  0.96263795  0.75127554    -0.16400
C1519       C  0.81024314  0.63271492  0.36404585     0.46300
H1520       H  0.80955238  0.63089742  0.38272160    -0.02700
C1521       C  0.81185154  0.63610413  0.32040959     0.46400
H1522       H  0.81190549  0.63715715  0.30177606    -0.02700
C1523       C  0.83349271  0.67712403  0.35516496    -0.16400
C1524       C  0.83166822  0.61404015  0.35342668    -0.16200
C1525       C  0.76657968  0.60950955  0.35337202    -0.16500
C1526       C  0.83461884  0.67956176  0.33213716    -0.16500
C1527       C  0.83276486  0.61520756  0.33029273    -0.16100
C1528       C  0.76682173  0.61109944  0.33030779    -0.16400
C1529       C  0.81626908  0.64026035  0.11937522     0.46300
H1530       H  0.81822102  0.64359153  0.10077576    -0.02700
C1531       C  0.81152336  0.63263091  0.16289191     0.46400
H1532       H  0.81030956  0.63022287  0.18148801    -0.02700
C1533       C  0.84042605  0.68152747  0.13172963    -0.16400
C1534       C  0.77132432  0.61701522  0.12823239    -0.16200
C1535       C  0.83425485  0.61722354  0.12840442    -0.16500
C1536       C  0.83754600  0.67837746  0.15462194    -0.16500
C1537       C  0.76820578  0.61238450  0.15121198    -0.16100
C1538       C  0.83183940  0.61255966  0.15132454    -0.16400
C1539       C  0.96358674  0.97202880  0.21980141     0.46300
H1540       H  0.96294184  0.97100181  0.20112600    -0.02700
C1541       C  0.96472131  0.97347178  0.26365916     0.46400
H1542       H  0.96525316  0.97451612  0.28229301    -0.02700
C1543       C  0.94094056  0.92854685  0.23055819    -0.16400
C1544       C  0.50824821  0.99621173  0.22996665    -0.16200
C1545       C  0.94226918  0.99186424  0.22991419    -0.16500
C1546       C  0.94202138  0.92913126  0.25373257    -0.16500
C1547       C  0.50898481  0.99777608  0.25312920    -0.16100
C1548       C  0.94293687  0.99250123  0.25305637    -0.16400
O1549       O  0.55514791  0.58104530  0.97518866    -0.80100
O1550       O  0.97428638  0.89368283  0.00883978    -0.64700
O1551       O  0.49695719  0.98441623  0.97157205    -1.11300
C1552       C  0.91698260  0.49947499  0.02486915     1.06800
O1553       O  0.90869213  0.87117352  0.00598840    -0.77900
O1554       O  0.87327919  0.90773680  0.99067417    -0.65500
Ni1555     Ni  0.56285084  0.53863249  0.96587275     1.34900
C1556       C  0.88344666  0.93053471  0.97348351     0.85600
O1557       O  0.51527269  0.92496414  0.96968864    -0.78500
O1558       O  0.56575221  0.98826504  0.95615880    -0.88800
C1559       C  0.93654678  0.86795671  0.01457379     0.85100
O1560       O  0.58829548  0.54455353  0.99441133    -0.67000
O1561       O  0.89592566  0.95388532  0.02953288    -0.86300
C1562       C  0.57780948  0.52001658  0.01083532     0.86000
C1563       C  0.54757817  0.94889575  0.95772692     1.07500
H1564       H  0.97498945  0.96837895  0.02227315     0.39300
O1565       O  0.95876324  0.95586196  0.00863652    -1.08900
O1566       O  0.91826815  0.96560185  0.97158505    -0.65600
Ni1567     Ni  0.97550922  0.50898526  0.99077086     1.26300
O1568       O  0.53599175  0.97029883  0.00837607    -0.65800
O1569       O  0.94450163  0.52178112  0.00998796    -0.78100
C1570       C  0.52561152  0.58270930  0.96738872     0.85400
O1571       O  0.98779718  0.55346474  0.97121287    -0.65300
Ni1572     Ni  0.90305252  0.91311020  0.01750872     1.27400
Ni1573     Ni  0.98688069  0.93912530  0.98966907     1.26100
H1574       H  0.98237646  0.97323330  0.95738274     0.39900
O1575       O  0.91634437  0.88066999  0.47701539    -0.80100
O1576       O  0.99114060  0.55521034  0.51117922    -0.64700
O1577       O  0.96421752  0.96534407  0.47322437    -1.11300
C1578       C  0.55637893  0.96305105  0.52533967     1.06800
O1579       O  0.55676801  0.57985997  0.50505807    -0.77900
O1580       O  0.59041305  0.54294119  0.48798676    -0.65500
Ni1581     Ni  0.90818666  0.92120757  0.46543743     1.34900
C1582       C  0.57845476  0.51830112  0.47135396     0.85600
O1583       O  0.94397904  0.52102316  0.47352568    -0.78500
O1584       O  0.89830898  0.96036436  0.45336868    -0.88800
C1585       C  0.52959155  0.58298419  0.51455018     0.85100
O1586       O  0.88075525  0.91727294  0.49269075    -0.67000
O1587       O  0.57250643  0.00180460  0.52858619    -0.86300
C1588       C  0.89169157  0.94041403  0.50994673     0.86000
C1589       C  0.91586404  0.49893141  0.45857740     1.07500
H1590       H  0.99175598  0.98483631  0.52370461     0.39300
O1591       O  0.50575877  0.99640835  0.50951387    -1.08900
O1592       O  0.54282889  0.98380527  0.47149144    -0.65600
Ni1593     Ni  0.99597133  0.95164460  0.49127540     1.26300
O1594       O  0.92643620  0.97595005  0.51150916    -0.65800
O1595       O  0.52790097  0.94021605  0.51066393    -0.78100
C1596       C  0.94432951  0.87790053  0.46824857     0.85400
O1597       O  0.98261261  0.90600338  0.47220084    -0.65300
Ni1598     Ni  0.56592367  0.53986679  0.51611907     1.27400
Ni1599     Ni  0.97672832  0.50924503  0.49217378     1.26100
H1600       H  0.97871311  0.97734554  0.45926875     0.39900
C1601       C  0.68249630  0.56481348  0.09302308     0.30600
C1602       C  0.64517027  0.53045246  0.08376518    -0.35700
C1603       C  0.63267890  0.53723357  0.06299362     0.16600
C1604       C  0.65528774  0.57519240  0.05214104     0.22400
C1605       C  0.69230460  0.60952936  0.06145127    -0.33800
C1606       C  0.70479716  0.60269518  0.08210308     0.16500
O1607       O  0.70169908  0.56495310  0.11147601    -0.25900
C1608       C  0.73651466  0.60351138  0.11230076     0.02100
C1609       C  0.74002648  0.62818868  0.09445993    -0.30700
O1610       O  0.63895075  0.57418734  0.03248327    -0.22600
C1611       C  0.60539832  0.53508792  0.03067479    -0.02600
C1612       C  0.59976335  0.51066491  0.04919151    -0.17000
H1613       H  0.62775985  0.50030108  0.09185415     0.21000
H1614       H  0.71070745  0.63918903  0.05289539     0.19400
H1615       H  0.76583478  0.65976005  0.09056644     0.19300
H1616       H  0.57544324  0.47796990  0.05185793     0.15200
C1617       C  0.90105793  0.76041135  0.09350608     0.30600
C1618       C  0.93290015  0.78229224  0.07742963    -0.35700
C1619       C  0.92599065  0.80393403  0.06117942     0.16600
C1620       C  0.88993641  0.80324473  0.06077821     0.22400
C1621       C  0.85868546  0.78207243  0.07695715    -0.33800
C1622       C  0.86589932  0.76125792  0.09331192     0.16500
O1623       O  0.89853904  0.73464216  0.10876585    -0.25900
C1624       C  0.86195761  0.72003048  0.11872267     0.06300
C1625       C  0.84040343  0.73553810  0.10984825    -0.30700
O1626       O  0.88893357  0.82432829  0.04396840    -0.22600
C1627       C  0.92488510  0.83927642  0.03338880    -0.02600
C1628       C  0.94963166  0.82793512  0.04337194    -0.17000
H1629       H  0.96045668  0.78160583  0.07727153     0.21000
H1630       H  0.83026394  0.78124655  0.07655064     0.19400
H1631       H  0.80871303  0.72589387  0.11351833     0.19300
H1632       H  0.98037130  0.83635057  0.03837683     0.15200
C1633       C  0.89789169  0.56263848  0.05661164     0.30600
C1634       C  0.90004288  0.59848803  0.06300026    -0.35700
C1635       C  0.88061040  0.59573996  0.08342934     0.16600
C1636       C  0.86085421  0.56040882  0.09662658     0.22400
C1637       C  0.85897262  0.52497253  0.09034319    -0.33800
C1638       C  0.87776034  0.52750604  0.06993596     0.16500
O1639       O  0.91389871  0.55770513  0.03832699    -0.25900
C1640       C  0.90314687  0.51874466  0.04009966     0.06300
C1641       C  0.88065481  0.49868153  0.05937607    -0.30700
O1642       O  0.84310239  0.56366965  0.11446370    -0.22600
C1643       C  0.85176414  0.60168695  0.11285732    -0.02600
C1644       C  0.87495370  0.62317152  0.09389337    -0.17000
H1645       H  0.91523115  0.62621469  0.05271151     0.21000
H1646       H  0.84325852  0.49704556  0.10048229     0.19400
H1647       H  0.86837832  0.96281361  0.06766686     0.19300
H1648       H  0.88510053  0.65399780  0.08836859     0.15200
C1649       C  0.88344348  0.82700030  0.20801629     0.30600
C1650       C  0.85270307  0.78369700  0.20793519    -0.35700
C1651       C  0.85834971  0.76042130  0.19219763     0.16600
C1652       C  0.89159996  0.77881429  0.17744347     0.22400
C1653       C  0.92224217  0.82189207  0.17757826    -0.33800
C1654       C  0.91690537  0.84500122  0.19341869     0.16500
O1655       O  0.88595548  0.85441003  0.22215798    -0.25900
C1656       C  0.92182563  0.89016256  0.21676323     0.06300
C1657       C  0.94201011  0.88630640  0.19873804    -0.30700
O1658       O  0.88979902  0.75191709  0.16332908    -0.22600
C1659       C  0.85520472  0.71557884  0.16910704    -0.02600
C1660       C  0.83440269  0.71874596  0.18715113    -0.17000
H1661       H  0.82659760  0.76919008  0.21948953     0.21000
H1662       H  0.94853426  0.83634978  0.16614881     0.19400
H1663       H  0.97218161  0.90991516  0.19164255     0.19300
H1664       H  0.80460386  0.69452138  0.19434815     0.15200
C1665       C  0.88432816  0.56794632  0.16964025     0.30600
C1666       C  0.91336672  0.55730861  0.16829615    -0.35700
C1667       C  0.91347819  0.53437395  0.18637841     0.16600
C1668       C  0.88616242  0.52211684  0.20415559     0.22400
C1669       C  0.85703490  0.53251286  0.20540577    -0.33800
C1670       C  0.85749156  0.55609688  0.18759872     0.16500
O1671       O  0.87956541  0.59011493  0.15496637    -0.25900
C1672       C  0.84913008  0.59232936  0.16349165     0.06300
C1673       C  0.83452836  0.57212541  0.18397627    -0.30700
O1674       O  0.88767060  0.00526395  0.22254749    -0.22600
C1675       C  0.92168217  0.00733377  0.21588504    -0.02600
C1676       C  0.93997028  0.52291903  0.19161946    -0.17000
H1677       H  0.93513951  0.56731293  0.15448430     0.21000
H1678       H  0.82768364  0.02257896  0.22012399     0.19400
H1679       H  0.80993444  0.56880042  0.19436258     0.19300
H1680       H  0.96690781  0.52922240  0.18227717     0.15200
C1681       C  0.66590607  0.57124821  0.17109935     0.30600
C1682       C  0.62427584  0.55970370  0.16988698    -0.35700
C1683       C  0.59984773  0.54115808  0.18920091     0.16600
C1684       C  0.61542333  0.53451258  0.20835294     0.22400
C1685       C  0.65712554  0.54629778  0.20963556    -0.33800
C1686       C  0.68151767  0.56481604  0.19031706     0.16500
O1687       O  0.69398639  0.58860260  0.15493837    -0.25900
C1688       C  0.72817991  0.59338594  0.16380164     0.06300
C1689       C  0.72222612  0.57928817  0.18589213    -0.30700
O1690       O  0.57642180  0.00705086  0.22210466    -0.22600
C1691       C  0.54601858  0.01146137  0.21594427    -0.02600
C1692       C  0.55918217  0.52696948  0.19371880    -0.17000
H1693       H  0.61180927  0.56479667  0.15490751     0.21000
H1694       H  0.65438928  0.02075506  0.21922568     0.19400
H1695       H  0.74432442  0.57907779  0.19700573     0.19300
H1696       H  0.53715384  0.52766884  0.18279329     0.15200
C1697       C  0.63008150  0.53355729  0.42022205     0.30600
C1698       C  0.63927781  0.52237502  0.39975899    -0.35700
C1699       C  0.67479915  0.55462953  0.38838950     0.16600
C1700       C  0.69896136  0.59503885  0.39649205     0.22400
C1701       C  0.68982859  0.60621730  0.41682745    -0.33800
C1702       C  0.65492682  0.57398005  0.42831595     0.16500
O1703       O  0.59957440  0.50826812  0.43418415    -0.25900
C1704       C  0.60542871  0.53291560  0.45144982     0.06300
C1705       C  0.63944127  0.57404872  0.44869475    -0.30700
O1706       O  0.73246371  0.61947722  0.38431593    -0.22600
C1707       C  0.73009670  0.59486450  0.36805016    -0.02600
C1708       C  0.69498900  0.55386523  0.36983489    -0.17000
H1709       H  0.62093863  0.49055752  0.39355225     0.21000
H1710       H  0.70958663  0.63755629  0.42364506     0.19400
H1711       H  0.65113108  0.60017103  0.46012186     0.19300
H1712       H  0.68732211  0.52681818  0.36015816     0.15200
C1713       C  0.88992175  0.79294768  0.43212752     0.30600
C1714       C  0.85399179  0.75652599  0.42371296    -0.35700
C1715       C  0.85768854  0.74393975  0.40243637     0.16600
C1716       C  0.89407278  0.76543744  0.39000726     0.22400
C1717       C  0.93037615  0.80226862  0.39847366    -0.33800
C1718       C  0.92681009  0.81482990  0.42005694     0.16500
O1719       O  0.89234124  0.81111140  0.45123058    -0.25900
C1720       C  0.93148501  0.84484698  0.45177977     0.06300
C1721       C  0.95465939  0.84888581  0.43289130    -0.30700
O1722       O  0.89031421  0.74619720  0.37085312    -0.22600
C1723       C  0.85093222  0.71223883  0.37126028    -0.02600
C1724       C  0.82947913  0.70956087  0.39048444    -0.17000
H1725       H  0.82504666  0.73915651  0.43312994     0.21000
H1726       H  0.95929083  0.81963721  0.38904148     0.19400
H1727       H  0.98618036  0.87460201  0.42855039     0.19300
H1728       H  0.79818064  0.68491331  0.39556273     0.15200
C1729       C  0.87835958  0.59177453  0.39614118     0.30600
C1730       C  0.90290082  0.59963180  0.41550178    -0.35700
C1731       C  0.89816798  0.56453535  0.42542156     0.16600
C1732       C  0.87117936  0.52472994  0.41679857     0.22400
C1733       C  0.84664900  0.51695100  0.39761825    -0.33800
C1734       C  0.85141631  0.55182789  0.38773951     0.16500
O1735       O  0.87651182  0.61941924  0.38448532    -0.25900
C1736       C  0.84872191  0.59682034  0.36821619     0.06300
C1737       C  0.83147868  0.55451975  0.36973260    -0.30700
O1738       O  0.87277636  0.49666209  0.42797262    -0.22600
C1739       C  0.90104620  0.51846585  0.44408027    -0.02600
C1740       C  0.91786322  0.56095946  0.44346078    -0.17000
H1741       H  0.92413545  0.63078905  0.42230198     0.21000
H1742       H  0.82547297  0.48581833  0.39078116     0.19400
H1743       H  0.80649695  0.52925309  0.35963954     0.19300
H1744       H  0.94231912  0.58567516  0.45403460     0.15200
C1745       C  0.90747057  0.83052594  0.27545468     0.30600
C1746       C  0.89489179  0.78906696  0.27381643    -0.35700
C1747       C  0.87859459  0.76535904  0.29337056     0.16600
C1748       C  0.87518668  0.78142674  0.31325146     0.22400
C1749       C  0.88755328  0.82303513  0.31485805    -0.33800
C1750       C  0.90358649  0.84676756  0.29512260     0.16500
O1751       O  0.92248318  0.85748989  0.25896263    -0.25900
C1752       C  0.92744602  0.89147423  0.26766738     0.06300
C1753       C  0.91683021  0.88687826  0.29038359    -0.30700
O1754       O  0.85932997  0.75357130  0.32946032    -0.22600
C1755       C  0.85254537  0.71927089  0.31983428    -0.02600
C1756       C  0.86371178  0.72480830  0.29730414    -0.17000
H1757       H  0.89727299  0.77610239  0.25825848     0.21000
H1758       H  0.88455749  0.83581960  0.33031226     0.19400
H1759       H  0.91744098  0.90916421  0.30155404     0.19300
H1760       H  0.86182729  0.70254080  0.28557224     0.15200
C1761       C  0.91222529  0.55368044  0.27158314     0.30600
C1762       C  0.90150798  0.58274934  0.27070283    -0.35700
C1763       C  0.88148226  0.58497470  0.28981925     0.16600
C1764       C  0.87317401  0.56050218  0.30842187     0.22400
C1765       C  0.88330068  0.53118417  0.30916569    -0.33800
C1766       C  0.90286119  0.52868623  0.29007180     0.16500
O1767       O  0.93059077  0.54598116  0.25561813    -0.25900
C1768       C  0.92710615  0.01245939  0.26670629     0.06300
C1769       C  0.90661283  0.99760266  0.28718286    -0.30700
O1770       O  0.85527507  0.56797521  0.32461499    -0.22600
C1771       C  0.85141181  0.59744733  0.31657186    -0.02600
C1772       C  0.86703088  0.60916040  0.29476520    -0.17000
H1773       H  0.90815648  0.60208347  0.25611531     0.21000
H1774       H  0.86038107  0.00159261  0.32372121     0.19400
H1775       H  0.89966355  0.97043805  0.29636811     0.19300
H1776       H  0.86834944  0.63255070  0.28430587     0.15200
C1777       C  0.61411436  0.55902849  0.27637407     0.30600
C1778       C  0.65710073  0.59188548  0.27726888    -0.35700
C1779       C  0.68142948  0.58820022  0.29343995     0.16600
C1780       C  0.66435323  0.55464209  0.30777049     0.22400
C1781       C  0.61586492  0.03996224  0.31307968    -0.33800
C1782       C  0.59727234  0.52561241  0.29080684     0.16500
O1783       O  0.58625461  0.55447476  0.26155571    -0.25900
C1784       C  0.54837871  0.02063236  0.26683882     0.06300
C1785       C  0.55125222  0.01239888  0.28928831    -0.30700
O1786       O  0.69228468  0.55768929  0.32186676    -0.22600
C1787       C  0.72793421  0.59362289  0.31668955    -0.02600
C1788       C  0.72325423  0.61390173  0.29890832    -0.17000
H1789       H  0.67072395  0.61805664  0.26589060     0.21000
H1790       H  0.60043535  0.02250234  0.32817743     0.19400
H1791       H  0.52651428  0.98959551  0.30022995     0.19300
H1792       H  0.74676486  0.64392241  0.29176837     0.15200
C1793       C  0.60324977  0.71811337  0.90225218     0.30600
C1794       C  0.60969822  0.71054795  0.92428405    -0.35700
C1795       C  0.57626384  0.67410288  0.93397934     0.16600
C1796       C  0.53857769  0.64704692  0.92293458     0.22400
C1797       C  0.53181353  0.65515272  0.90084639    -0.33800
C1798       C  0.56584933  0.69149580  0.89090456     0.16500
O1799       O  0.63098083  0.75002989  0.89011844    -0.25900
C1800       C  0.61174373  0.74411067  0.87051192     0.06300
C1801       C  0.57088282  0.70810018  0.86991323    -0.30700
O1802       O  0.51370518  0.61235829  0.93435139    -0.22600
C1803       C  0.53602753  0.61750132  0.95276494    -0.02600
C1804       C  0.57496635  0.65548991  0.95346912    -0.17000
H1805       H  0.63943919  0.73091996  0.93295224     0.21000
H1806       H  0.50288035  0.63373802  0.89173675     0.19400
H1807       H  0.54786128  0.69694378  0.85647373     0.19300
H1808       H  0.60021264  0.66604865  0.96553826     0.15200
C1809       C  0.82971990  0.91512988  0.92309312     0.30600
C1810       C  0.82255440  0.92626639  0.90208187    -0.35700
C1811       C  0.78849835  0.89402171  0.88970422     0.16600
C1812       C  0.76337701  0.85362442  0.89746654     0.22400
C1813       C  0.77020457  0.84254530  0.91859309    -0.33800
C1814       C  0.80410265  0.87486172  0.93103272     0.16500
O1815       O  0.86034987  0.94013432  0.93720410    -0.25900
C1816       C  0.85408825  0.91567201  0.95446887     0.06300
C1817       C  0.81929565  0.87477748  0.95169435    -0.30700
O1818       O  0.73142331  0.82927317  0.88396996    -0.22600
C1819       C  0.73619398  0.85413919  0.86721669    -0.02600
C1820       C  0.77094644  0.89499551  0.87004872    -0.17000
H1821       H  0.84185913  0.95795627  0.89595139     0.21000
H1822       H  0.74999070  0.81115408  0.92504518     0.19400
H1823       H  0.80784335  0.84861306  0.96289547     0.19300
H1824       H  0.77966943  0.92217594  0.86029002     0.15200
C1825       C  0.60119920  0.92769121  0.91981303     0.30600
C1826       C  0.63105282  0.93792523  0.90322226    -0.35700
C1827       C  0.62414015  0.90454906  0.89031460     0.16600
C1828       C  0.59060063  0.86380575  0.89379275     0.22400
C1829       C  0.56111696  0.85343735  0.91066913    -0.33800
C1830       C  0.56771330  0.88694808  0.92339286     0.16500
O1831       O  0.59942659  0.95446582  0.93228219    -0.25900
C1832       C  0.56453019  0.93065949  0.94407933     0.06300
C1833       C  0.54360623  0.88828133  0.93944797    -0.30700
O1834       O  0.59057125  0.83753477  0.87991212    -0.22600
C1835       C  0.62389637  0.86193031  0.86712343    -0.02600
C1836       C  0.64640224  0.90381778  0.87297886    -0.17000
H1837       H  0.65710370  0.96982225  0.90015050     0.21000
H1838       H  0.53445254  0.82165799  0.91333626     0.19400
H1839       H  0.51365078  0.86266418  0.94579877     0.19300
H1840       H  0.67569059  0.92952241  0.86606272     0.15200
C1841       C  0.84875469  0.89302944  0.77205785     0.30600
C1842       C  0.80460327  0.86479091  0.77079300    -0.35700
C1843       C  0.78213478  0.86455843  0.78942040     0.16600
C1844       C  0.80213767  0.89008563  0.80785286     0.22400
C1845       C  0.84586246  0.91816153  0.80904344    -0.33800
C1846       C  0.86812182  0.91867636  0.79051152     0.16500
O1847       O  0.87593563  0.90053444  0.75620832    -0.25900
C1848       C  0.91297197  0.93197872  0.76445583     0.06300
C1849       C  0.90989103  0.94392707  0.78595121    -0.30700
O1850       O  0.77591638  0.88492160  0.82350882    -0.22600
C1851       C  0.73819261  0.85574917  0.81537571    -0.02600
C1852       C  0.73991034  0.84196839  0.79396781    -0.17000
H1853       H  0.78894992  0.84508017  0.75619904     0.21000
H1854       H  0.86141796  0.93866969  0.82337804     0.19400
H1855       H  0.93435666  0.96931777  0.79619056     0.19300
H1856       H  0.71413375  0.81820759  0.78360392     0.15200
C1857       C  0.59691275  0.89799417  0.80894487     0.30600
C1858       C  0.58538896  0.92624974  0.81025792    -0.35700
C1859       C  0.56534448  0.92860419  0.79117021     0.16600
C1860       C  0.55706058  0.90458036  0.77221199     0.22400
C1861       C  0.56861191  0.87635521  0.77090387    -0.33800
C1862       C  0.58895697  0.87423337  0.78992060     0.16500
O1863       O  0.61555765  0.89057719  0.82487908    -0.25900
C1864       C  0.61988635  0.86175181  0.81607087     0.06300
C1865       C  0.60406383  0.85057222  0.79421468    -0.30700
O1866       O  0.53913263  0.91253747  0.75610318    -0.22600
C1867       C  0.53632601  0.94252190  0.76459554    -0.02600
C1868       C  0.55164141  0.95334704  0.78656034    -0.17000
H1869       H  0.59185692  0.94524493  0.82508125     0.21000
H1870       H  0.56255074  0.85769680  0.75598842     0.19400
H1871       H  0.60276997  0.82760145  0.78331732     0.19300
H1872       H  0.56896330  0.48557303  0.79518846     0.15200
C1873       C  0.55415685  0.62225543  0.77509532     0.30600
C1874       C  0.55972149  0.66100936  0.77475650    -0.35700
C1875       C  0.58165630  0.68741050  0.79305687     0.16600
C1876       C  0.59689961  0.67633371  0.81056994     0.22400
C1877       C  0.59196756  0.63771439  0.81070945    -0.33800
C1878       C  0.56996275  0.61122916  0.79232891     0.16500
O1879       O  0.53490738  0.59318780  0.75953610    -0.25900
C1880       C  0.53882549  0.56324743  0.76658895     0.06300
C1881       C  0.55989201  0.57239601  0.78708687    -0.30700
O1882       O  0.61531849  0.70545303  0.82627586    -0.22600
C1883       C  0.61191585  0.73550182  0.81862249    -0.02600
C1884       C  0.59172845  0.72623019  0.79791399    -0.17000
H1885       H  0.54769740  0.66989769  0.76115914     0.21000
H1886       H  0.60417978  0.62888222  0.82423322     0.19400
H1887       H  0.56772583  0.55378994  0.79633370     0.19300
H1888       H  0.58483546  0.74503703  0.78811680     0.15200
C1889       C  0.58374595  0.66024722  0.55508736     0.30600
C1890       C  0.61892078  0.68893853  0.56806326    -0.35700
C1891       C  0.61105480  0.70528016  0.58668266     0.16600
C1892       C  0.57141815  0.69457850  0.59208117     0.22400
C1893       C  0.53613289  0.66573049  0.57907621    -0.33800
C1894       C  0.54394686  0.64908380  0.56046982     0.16500
O1895       O  0.58380441  0.63997919  0.53748442    -0.25900
C1896       C  0.54360856  0.61553467  0.53144238     0.06300
C1897       C  0.51720995  0.61981655  0.54506410    -0.30700
O1898       O  0.57200733  0.71624131  0.60926429    -0.22600
C1899       C  0.61236732  0.74033477  0.61504936    -0.02600
C1900       C  0.63809461  0.73499673  0.60160007    -0.17000
H1901       H  0.65022049  0.69792849  0.56390393     0.21000
H1902       H  0.50493413  0.65719471  0.58305691     0.19400
H1903       H  0.98336252  0.60234403  0.54450092     0.19300
H1904       H  0.67207152  0.75276878  0.60176593     0.15200
C1905       C  0.76079424  0.86132271  0.58018132     0.30600
C1906       C  0.76902006  0.85286366  0.55872328    -0.35700
C1907       C  0.80756893  0.88400102  0.54937667     0.16600
C1908       C  0.83636715  0.92096344  0.56036817     0.22400
C1909       C  0.82819364  0.92932246  0.58200011    -0.33800
C1910       C  0.78934836  0.89812404  0.59135781     0.16500
O1911       O  0.72579589  0.83727987  0.59144534    -0.25900
C1912       C  0.73182376  0.85841272  0.61032333     0.06300
C1913       C  0.77076240  0.89684987  0.61111281    -0.30700
O1914       O  0.87002358  0.94603327  0.54808668    -0.22600
C1915       C  0.86243966  0.92472801  0.52901519    -0.02600
C1916       C  0.82406942  0.88594074  0.52895305    -0.17000
H1917       H  0.74651150  0.82428885  0.54974585     0.21000
H1918       H  0.85019796  0.95835990  0.59073427     0.19400
H1919       H  0.78289779  0.92093280  0.62390204     0.19300
H1920       H  0.81021340  0.86265791  0.51567967     0.15200
C1921       C  0.59772756  0.93603042  0.56840414     0.30600
C1922       C  0.62132701  0.94262726  0.58787997    -0.35700
C1923       C  0.61555496  0.90690424  0.59734542     0.16600
C1924       C  0.58868303  0.86752265  0.58815721     0.22400
C1925       C  0.56470025  0.86088716  0.56887268    -0.33800
C1926       C  0.57045488  0.89657631  0.55941930     0.16500
O1927       O  0.59765785  0.96481683  0.55698609    -0.25900
C1928       C  0.57012297  0.94351864  0.54046079     0.06300
C1929       C  0.55220794  0.90092266  0.54109623    -0.30700
O1930       O  0.59049002  0.83903627  0.59874218    -0.22600
C1931       C  0.61819041  0.86031444  0.61514091    -0.02600
C1932       C  0.63486777  0.90265073  0.61518019    -0.17000
H1933       H  0.64291472  0.97343923  0.59501207     0.21000
H1934       H  0.54359312  0.83016091  0.56154483     0.19400
H1935       H  0.52814358  0.87662199  0.53018260     0.19300
H1936       H  0.65938665  0.92690453  0.62592995     0.15200
C1937       C  0.57772720  0.67501308  0.67363375     0.30600
C1938       C  0.54762760  0.63146512  0.67334190    -0.35700
C1939       C  0.55041661  0.60889890  0.69085616     0.16600
C1940       C  0.58082852  0.62797551  0.70745582     0.22400
C1941       C  0.61080079  0.67152238  0.70778246    -0.33800
C1942       C  0.60787193  0.69412155  0.69035996     0.16500
O1943       O  0.58153073  0.70183277  0.65860158    -0.25900
C1944       C  0.61436677  0.73885645  0.66577412     0.06300
C1945       C  0.63183811  0.73592325  0.68560873    -0.30700
O1946       O  0.57685541  0.60128718  0.72264479    -0.22600
C1947       C  0.54318144  0.56444511  0.71594002    -0.02600
C1948       C  0.52576779  0.56729179  0.69602191    -0.17000
H1949       H  0.52363848  0.61626343  0.66037374     0.21000
H1950       H  0.63455139  0.68676492  0.72086096     0.19400
H1951       H  0.65924874  0.76067320  0.69465116     0.19300
H1952       H  0.49777799  0.54268385  0.68728550     0.15200
C1953       C  0.85570410  0.92564731  0.70535702     0.30600
C1954       C  0.81544423  0.91729373  0.70604732    -0.35700
C1955       C  0.78952011  0.89572726  0.68751109     0.16600
C1956       C  0.80243044  0.88345113  0.66948613     0.22400
C1957       C  0.84278628  0.89178798  0.66880496    -0.33800
C1958       C  0.86871104  0.91317405  0.68746935     0.16500
O1959       O  0.88421058  0.94385198  0.72135262    -0.25900
C1960       C  0.91565180  0.94231050  0.71398964     0.06300
C1961       C  0.90822369  0.92432788  0.69274041    -0.30700
O1962       O  0.77296172  0.86366962  0.65398508    -0.22600
C1963       C  0.74093871  0.86349795  0.66215040    -0.02600
C1964       C  0.74928450  0.88265933  0.68306355    -0.17000
H1965       H  0.80489328  0.92642322  0.72021903     0.21000
H1966       H  0.85300836  0.88185964  0.65485408     0.19400
H1967       H  0.92816804  0.91868973  0.68309754     0.19300
H1968       H  0.72898745  0.88697842  0.69328947     0.15200
C1969       C  0.58450121  0.93631070  0.70490424     0.30600
C1970       C  0.61697366  0.93015959  0.70492218    -0.35700
C1971       C  0.61398425  0.90266715  0.68844590     0.16600
C1972       C  0.58158345  0.88329376  0.67290292     0.22400
C1973       C  0.54949341  0.88979074  0.67273089    -0.33800
C1974       C  0.55221582  0.91680494  0.68929494     0.16500
O1975       O  0.57892441  0.95756212  0.71996383    -0.25900
C1976       C  0.54248367  0.95129613  0.71400548     0.06300
C1977       C  0.52484539  0.92682747  0.69478745    -0.30700
O1978       O  0.58485588  0.85917969  0.65890185    -0.22600
C1979       C  0.61968567  0.86274393  0.66547381    -0.02600
C1980       C  0.63914092  0.88925627  0.68392551    -0.17000
H1981       H  0.64208691  0.94482730  0.71730464     0.21000
H1982       H  0.52369217  0.87413716  0.66077529     0.19400
H1983       H  0.99456657  0.91528441  0.68719862     0.19300
H1984       H  0.66826939  0.89852933  0.69216005     0.15200
loop_ 
_geom_bond_atom_site_label_1 
_geom_bond_atom_site_label_2 
_geom_bond_distance 
_geom_bond_site_symmetry_2 
_ccdc_geom_bond_type 
C1            H2   1.113       .  S
C1            C7   1.518       .  S
C1            C6   1.520       .  S
C1            C5   1.520       .  S
C3            H4   1.110       .  S
C3            C9   1.549       .  S
C3            C8   1.555       .  S
C3           C10   1.548       .  S
C5            C8   1.372       .  D
C5          C411   1.469       .  S
C6            C9   1.370       .  D
C6          C424   1.475       .  S
C7           C10   1.370       .  D
C7          C443   1.466       .  S
C8          C456   1.486       .  S
C9          C475   1.468       .  S
C10         C491   1.482       .  S
C11          H12   1.109       .  S
C11          C17   1.564       .  S
C11          C16   1.554       .  S
C11          C15   1.553       .  S
C13          H14   1.113       .  S
C13          C19   1.520       .  S
C13          C18   1.516       .  S
C13          C20   1.522       .  S
C15          C18   1.372       .  D
C15         C376   1.487       .  S
C16          C19   1.371       .  D
C16         C395   1.478       .  S
C17          C20   1.379       .  D
C17         C363   1.503       .  S
C18         C347   1.467       .  S
C19         C312   1.476       .  S
C20         C331   1.473       .  S
C21          H22   1.111       .  S
C21          C27   1.542       .  S
C21        C1018   1.538   1_455  S
C21         C521   1.536       .  S
C23          H24   1.109       .  S
C23          C30   1.538   1_655  S
C23        C1021   1.546       .  S
C23         C524   1.545   1_655  S
C25         C517   1.538   1_445  S
C25          C28   1.375       .  D
C25         C459   1.488       .  S
C26        C1013   1.538       .  S
C26          C29   1.381       .  D
C26         C472   1.472       .  S
C27          C30   1.372       .  D
C27         C488   1.484       .  S
C28         C519   1.543   1_445  S
C28         C392   1.482       .  S
C29        C1015   1.546       .  S
C29         C360   1.508       .  S
C30         C379   1.486       .  S
C31          H32   1.113       .  S
C31          C37   1.521       .  S
C31          C36   1.512       .  S
C31          C35   1.524       .  S
C33          H34   1.109       .  S
C33          C39   1.557       .  S
C33          C38   1.557       .  S
C33          C40   1.554       .  S
C35          C38   1.374       .  D
C35         C235   1.476       .  S
C36          C39   1.370       .  D
C36         C248   1.467       .  S
C37          C40   1.376       .  D
C37         C219   1.471       .  S
C38         C267   1.491       .  S
C39         C283   1.487       .  S
C40         C299   1.488       .  S
C41          H42   1.111       .  S
C41          C47   1.523       .  S
C41          C46   1.520       .  S
C41          C45   1.520       .  S
C43          H44   1.111       .  S
C43          C49   1.553       .  S
C43          C48   1.569       .  S
C43          C50   1.559       .  S
C45          C48   1.376       .  D
C45         C136   1.482       .  S
C46          C49   1.366       .  D
C46         C120   1.467       .  S
C47          C50   1.374       .  D
C47         C155   1.474       .  S
C48         C171   1.493       .  S
C49         C200   1.485       .  S
C50         C184   1.497       .  S
C51          H52   1.110       .  S
C51          C57   1.543       .  S
C51          C55   1.541       .  S
C51        C1048   1.545       .  S
C53          H54   1.109       .  S
C53          C58   1.546       .  S
C53          C60   1.540       .  S
C53        C1051   1.540       .  S
C55          C58   1.382       .  D
C55         C168   1.495       .  S
C56        C1043   1.545   1_455  S
C56          C59   1.375       .  D
C56         C203   1.493       .  S
C57          C60   1.378       .  D
C57         C187   1.479       .  S
C58         C264   1.491       .  S
C59        C1045   1.540   1_455  S
C59         C296   1.484       .  S
C60         C280   1.501       .  S
O61         Ni67   1.917       .  S
O61          C82   1.266       .  A
O62         Ni85   1.922   1_554  S
O62          C71   1.266       .  A
O63        Ni563   1.907       .  S
O63       Ni1077   1.910   1_455  S
O63       Ni1567   1.913   1_455  S
O63        H1078   0.965   1_455  S
C64          O81   1.283   1_565  A
C64         O569   1.275       .  A
C64         C152   1.468   1_565  S
O65         Ni84   1.911       .  S
O65          C71   1.262       .  A
O66         Ni84   1.894   1_556  S
O66          C68   1.263       .  A
Ni67         O72   1.900       .  S
Ni67        O566   1.925   1_545  S
Ni67        O559   1.908   1_445  S
C68          O78   1.266       .  A
C68         C328   1.463       .  S
O69       Ni1077   1.911   1_455  S
O69          C75   1.277       .  A
O70        Ni563   1.921       .  S
O70          C75   1.277       .  A
C71         C139   1.463       .  S
O72          C74   1.263   1_556  A
O73         Ni84   1.906       .  S
O73         C560   1.277       .  A
C74         O576   1.264   1_545  A
C74         C123   1.460       .  S
C75         C344   1.462       .  S
H76          O77   0.966       .  S
O77         Ni85   1.909   1_554  S
O77         Ni84   1.900       .  S
O77        Ni575   1.907   1_554  S
O78        Ni575   1.920       .  S
Ni79         O83   1.929   1_565  S
Ni79         O81   1.938   1_566  S
Ni79        O574   1.912       .  S
Ni79       O1551   1.921       .  S
Ni79        O573   1.910   1_556  S
O80       Ni1077   1.915   1_454  S
O80         C570   1.266       .  A
C82        O1075   1.267   1_455  A
C82         C315   1.473       .  S
O83        C1074   1.268       .  A
Ni85       O1061   1.912       .  S
Ni85       O1072   1.916   1_556  S
Ni85       O1055   1.910       .  S
H86        O1055   0.965       .  S
O87         Ni93   1.912       .  S
O87         C108   1.264       .  A
O88        Ni111   1.921       .  S
O88        C1089   1.268       .  A
O89         Ni93   1.900       .  S
O89        Ni105   1.923       .  S
O89        Ni607   1.901       .  S
O89         H112   0.964       .  S
C90         O107   1.282       .  A
C90          O99   1.277       .  A
C90         C440   1.463       .  S
O91        Ni110   1.907       .  S
O91          C97   1.263       .  A
O92        Ni110   1.900       .  S
O92          C94   1.265       .  A
Ni93         O96   1.917       .  S
Ni93         O98   1.899       .  S
C94         O600   1.265   1_545  A
C94         C216   1.466       .  S
O95        Ni111   1.924       .  S
O95         C101   1.281   1_545  A
O96         C597   1.278       .  A
C97        O1080   1.268   1_455  A
C97         C408   1.463       .  S
O98         C100   1.266       .  A
O99        Ni606   1.913       .  S
C100        O106   1.267       .  A
C100        C427   1.469       .  S
C101        O592   1.277       .  A
C101        C251   1.462   1_565  S
H102       O1095   0.967       .  S
O103      Ni1599   1.922   1_455  S
O103      Ni1097   1.900   1_455  S
O103       Ni606   1.901       .  S
O103       H1094   0.967   1_455  S
O104      Ni1097   1.926   1_455  S
O104        C590   1.268       .  A
Ni105       O109   1.919       .  S
Ni105      O1096   1.926       .  S
Ni105      O1099   1.925       .  S
Ni105      O1095   1.900       .  S
O106       Ni607   1.925       .  S
O107      Ni1097   1.925   1_455  S
C108        O109   1.268       .  A
C108        C232   1.464       .  S
Ni110       O595   1.916       .  S
Ni110       O599   1.901   1_545  S
Ni111       O602   1.931   1_545  S
Ni111       O585   1.901   1_545  S
Ni111      O1591   1.919   1_545  S
C113        C118   1.381       .  A
C113        C114   1.404       .  A
C113        O119   1.320       .  A
C114        C115   1.403       .  A
C114        H125   1.082   1_545  S
C115        C124   1.361   1_545  A
C115        C116   1.381       .  A
C116        C117   1.397       .  A
C116        O122   1.315       .  A
C117        C118   1.397       .  A
C117        H126   1.082       .  S
C118        C121   1.353       .  A
O119        C120   1.330       .  A
C120        C121   1.385       .  A
C121        H127   1.081       .  S
O122        C123   1.327       .  A
C123        C124   1.392   1_545  A
C124        H128   1.083       .  S
C129        C134   1.379       .  A
C129        C130   1.408       .  A
C129        O135   1.324       .  A
C130        C131   1.409       .  A
C130        H141   1.082       .  S
C131        C140   1.366       .  A
C131        C132   1.381       .  A
C132        C133   1.396       .  A
C132        O138   1.314       .  A
C133        C134   1.396       .  A
C133        H142   1.083       .  S
C134        C137   1.349       .  A
O135        C136   1.334       .  A
C136        C137   1.389       .  A
C137        H143   1.080       .  S
O138        C139   1.327       .  A
C139        C140   1.394       .  A
C140        H144   1.082       .  S
C145        C150   1.381       .  A
C145        C146   1.402       .  A
C145        O151   1.324       .  A
C146        C147   1.405       .  A
C146        H157   1.082       .  S
C147        C156   1.355       .  A
C147        C148   1.382       .  A
C148        C149   1.397       .  A
C148        O154   1.319       .  A
C149        C150   1.399       .  A
C149        H158   1.082   1_545  S
C150        C153   1.349   1_545  A
O151        C152   1.331       .  A
C152        C153   1.391   1_545  A
C153        H655   1.083       .  S
O154        C155   1.328       .  A
C155        C156   1.392       .  A
C156        H160   1.083       .  S
H159        C649   1.083       .  S
C161        C166   1.379       .  A
C161        C162   1.410       .  A
C161        O167   1.327       .  A
C162        C163   1.411       .  A
C162        H173   1.082       .  S
C163        C172   1.365       .  A
C163        C164   1.380       .  A
C164        C165   1.404       .  A
C164        O170   1.324       .  A
C165        C166   1.405       .  A
C165        H174   1.082       .  S
C166        C169   1.360       .  A
O167        C168   1.336       .  A
C168        C169   1.393       .  A
C169        H175   1.082       .  S
O170        C171   1.331       .  A
C171        C172   1.399       .  A
C172        H176   1.082       .  S
C177        C182   1.379       .  A
C177        C178   1.409       .  A
C177        O183   1.322       .  A
C178        C179   1.407       .  A
C178        H189   1.082       .  S
C179        C188   1.369       .  A
C179        C180   1.378       .  A
C180        C181   1.410       .  A
C180        O682   1.321       .  A
C181        C182   1.409       .  A
C181        H686   1.082       .  S
C182        C185   1.372       .  A
O183        C184   1.335       .  A
C184        C185   1.395       .  A
C185        H191   1.082       .  S
O186        C187   1.328       .  A
O186        C676   1.311       .  A
C187        C684   1.392       .  A
C188        C683   1.393       .  A
C188        H192   1.082       .  S
H190        C677   1.082       .  S
C193        C198   1.379       .  A
C193        C194   1.407       .  A
C193        O199   1.319       .  A
C194        C195   1.405       .  A
C194        H205   1.082       .  S
C195        C204   1.368       .  A
C195        C196   1.379       .  A
C196        C197   1.406       .  A
C196        O698   1.318       .  A
C197        C198   1.404       .  A
C197        H702   1.082       .  S
C198        C201   1.367       .  A
O199        C200   1.334       .  A
C200        C201   1.390       .  A
C201        H207   1.082       .  S
O202        C203   1.333       .  A
O202        C692   1.318       .  A
C203        C700   1.393       .  A
C204        C699   1.392       .  A
C204        H208   1.082       .  S
H206        C693   1.083       .  S
C209        C214   1.381       .  A
C209        C210   1.406       .  A
C209        O215   1.320       .  A
C210        C211   1.404       .  A
C210        H221   1.082   1_545  S
C211        C220   1.364       .  A
C211        C212   1.380       .  A
C212        C213   1.396       .  A
C212        O218   1.310       .  A
C213        C214   1.395       .  A
C213        H222   1.083       .  S
C214        C217   1.354       .  A
O215        C216   1.333       .  A
C216        C217   1.388       .  A
C217        H223   1.083       .  S
O218        C219   1.325       .  A
C219        C220   1.393       .  A
C220        H224   1.082       .  S
C225        C230   1.381       .  A
C225        C226   1.398       .  A
C225        O231   1.315       .  A
C226        C227   1.398       .  A
C226        H237   1.083       .  S
C227        C236   1.351       .  A
C227        C228   1.379       .  A
C228        C229   1.405       .  A
C228        O234   1.322       .  A
C229        C230   1.406       .  A
C229        H238   1.082       .  S
C230        C233   1.364       .  A
O231        C232   1.329       .  A
C232        C233   1.392       .  A
C233        H239   1.082       .  S
O234        C235   1.332       .  A
C235        C236   1.388       .  A
C236        H240   1.077       .  S
C241        C246   1.381       .  A
C241        C242   1.402       .  A
C241        O247   1.316       .  A
C242        C243   1.400       .  A
C242        H253   1.082       .  S
C243        C252   1.361       .  A
C243        C244   1.381       .  A
C244        C245   1.400       .  A
C244        O250   1.314   1_545  A
C245        C246   1.399       .  A
C245        H254   1.082   1_545  S
C246        C249   1.358       .  A
O247        C248   1.329       .  A
C248        C249   1.388       .  A
C249        H255   1.083       .  S
O250        C251   1.330   1_565  A
C251        C252   1.390       .  A
C252        H256   1.082       .  S
C257        C262   1.379       .  A
C257        C258   1.406       .  A
C257        O263   1.319       .  A
C258        C259   1.405       .  A
C258        H269   1.082       .  S
C259        C268   1.366       .  A
C259        C260   1.378       .  A
C260        C261   1.405       .  A
C260        O266   1.318       .  A
C261        C262   1.403       .  A
C261        H270   1.082       .  S
C262        C265   1.364       .  A
O263        C264   1.333       .  A
C264        C265   1.393       .  A
C265        H271   1.081       .  S
O266        C267   1.332       .  A
C267        C268   1.394       .  A
C268        H272   1.081       .  S
C273        C278   1.380       .  A
C273        C274   1.403       .  A
C273        O279   1.314       .  A
C274        C275   1.400       .  A
C274        H285   1.082       .  S
C275        C284   1.367       .  A
C275        C276   1.378       .  A
C276        C277   1.407       .  A
C276        O282   1.315       .  A
C277        C278   1.403       .  A
C277        H782   1.083       .  S
C278        C777   1.367   1_545  A
O279        C776   1.329       .  A
C280        C281   1.393       .  A
C280        O775   1.337       .  A
C281        C774   1.367       .  A
C281        H287   1.082       .  S
O282        C283   1.333       .  A
C283        C284   1.390       .  A
C284        H288   1.082       .  S
H286        C773   1.082       .  S
C289        C294   1.378       .  A
C289        C290   1.406       .  A
C289        O295   1.316       .  A
C290        C291   1.403       .  A
C290        H301   1.082       .  S
C291        C300   1.368       .  A
C291        C292   1.377       .  A
C292        C789   1.402       .  A
C292        O298   1.312       .  A
C293        C788   1.403       .  A
C293        C790   1.401       .  A
C293        H302   1.082       .  S
C294        C789   1.400       .  A
C294        C793   1.363       .  A
O295        C792   1.332       .  A
C296        C297   1.389       .  A
C296        O791   1.334       .  A
C297        C790   1.363       .  A
C297        H303   1.082       .  S
O298        C299   1.329       .  A
C299        C300   1.394       .  A
C300        H304   1.081       .  S
C305        C310   1.380       .  A
C305        C306   1.393       .  A
C305        O311   1.310       .  A
C306        C307   1.393       .  A
C306        H317   1.082       .  S
C307        C316   1.351       .  A
C307        C308   1.380       .  A
C308        C309   1.414       .  A
C308        O314   1.327       .  A
C309        C310   1.412       .  A
C309        H318   1.082   1_455  S
C310        C313   1.373       .  A
O311        C312   1.325       .  A
C312        C313   1.398       .  A
C313        H319   1.082       .  S
O314        C315   1.337       .  A
C315        C316   1.387       .  A
C316        H320   1.083       .  S
C321        C326   1.381       .  A
C321        C322   1.403       .  A
C321        O327   1.319       .  A
C322        C323   1.402       .  A
C322        H333   1.082       .  S
C323        C332   1.360       .  A
C323        C324   1.380       .  A
C324        C325   1.399       .  A
C324        O330   1.314       .  A
C325        C326   1.398       .  A
C325        H334   1.083       .  S
C326        C329   1.355       .  A
O327        C328   1.330       .  A
C328        C329   1.389       .  A
C329        H335   1.083       .  S
O330        C331   1.329       .  A
C331        C332   1.391       .  A
C332        H336   1.082       .  S
C337        C342   1.381       .  A
C337        C338   1.399       .  A
C337        O343   1.313       .  A
C338        C339   1.397       .  A
C338        H349   1.082       .  S
C339        C348   1.356       .  A
C339        C340   1.380       .  A
C340        C341   1.402       .  A
C340        O346   1.316       .  A
C341        C342   1.401       .  A
C341        H350   1.082       .  S
C342        C345   1.361       .  A
O343        C344   1.328       .  A
C344        C345   1.391       .  A
C345        H351   1.082       .  S
O346        C347   1.330       .  A
C347        C348   1.387       .  A
C348        H352   1.082       .  S
C353        C358   1.376       .  A
C353        C354   1.410       .  A
C353        O359   1.320       .  A
C354        C355   1.407       .  A
C354        H365   1.082       .  S
C355        C364   1.372       .  A
C355        C356   1.376       .  A
C356        C357   1.409       .  A
C356        O362   1.318       .  A
C357        C358   1.406       .  A
C357        H366   1.082       .  S
C358        C361   1.370       .  A
O359        C360   1.335       .  A
C360        C361   1.397       .  A
C361        H367   1.081       .  S
O362        C363   1.334       .  A
C363        C364   1.396       .  A
C364        H368   1.081       .  S
C369        C374   1.378       .  A
C369        C370   1.404       .  A
C369        O375   1.314       .  A
C370        C371   1.401       .  A
C370        H381   1.082       .  S
C371        C380   1.365       .  A
C371        C372   1.379       .  A
C372        C373   1.409       .  A
C372        O378   1.319       .  A
C373        C374   1.406       .  A
C373        H382   1.082       .  S
C374        C377   1.371       .  A
O375        C376   1.330       .  A
C376        C377   1.393       .  A
C377        H383   1.082       .  S
O378        C379   1.334       .  A
C379        C380   1.390       .  A
C380        H880   1.082       .  S
H384        C876   1.082       .  S
C385        C390   1.379       .  A
C385        C386   1.404       .  A
C385        O391   1.315       .  A
C386        C387   1.402       .  A
C386        H397   1.082       .  S
C387        C396   1.365       .  A
C387        C388   1.380       .  A
C388        C389   1.405       .  A
C388        O394   1.316       .  A
C389        C390   1.402       .  A
C389        H398   1.082       .  S
C390        C393   1.366       .  A
O391        C392   1.331       .  A
C392        C393   1.390       .  A
C393        H399   1.082       .  S
O394        C395   1.331       .  A
C395        C396   1.390       .  A
C396        H400   1.082       .  S
C401        C406   1.381       .  A
C401        C402   1.398       .  A
C401        O407   1.313       .  A
C402        C403   1.397       .  A
C402        H413   1.083       .  S
C403        C412   1.352       .  A
C403        C404   1.380       .  A
C404        C405   1.404       .  A
C404        O410   1.320       .  A
C405        C406   1.404       .  A
C405        H414   1.082       .  S
C406        C409   1.365       .  A
O407        C408   1.329       .  A
C408        C409   1.392       .  A
C409       H1407   1.082   1_455  S
O410        C411   1.330       .  A
C411        C412   1.387       .  A
C412        H416   1.081       .  S
H415       C1401   1.082       .  S
C417        C422   1.380       .  A
C417        C418   1.395       .  A
C417        O423   1.309       .  A
C418        C419   1.394       .  A
C418        H429   1.083       .  S
C419        C428   1.353       .  A
C419        C420   1.380       .  A
C420        C421   1.409       .  A
C420        O426   1.322       .  A
C421        C422   1.408       .  A
C421        H430   1.082       .  S
C422        C425   1.369       .  A
O423        C424   1.325       .  A
C424        C425   1.395       .  A
C425        H431   1.082       .  S
O426        C427   1.334       .  A
C427        C428   1.387       .  A
C428        H432   1.083       .  S
C433        C438   1.380       .  A
C433        C434   1.403       .  A
C433        O439   1.315       .  A
C434        C435   1.401       .  A
C434        H445   1.082       .  S
C435        C444   1.361       .  A
C435        C436   1.381       .  A
C436        C437   1.399       .  A
C436        O442   1.313       .  A
C437        C438   1.397       .  A
C437        H446   1.082       .  S
C438        C441   1.360       .  A
O439        C440   1.331       .  A
C440        C441   1.388       .  A
C441        H447   1.082       .  S
O442        C443   1.327       .  A
C443        C444   1.390       .  A
C444        H448   1.083       .  S
C449        C454   1.379       .  A
C449        C450   1.404       .  A
C449        O455   1.316       .  A
C450        C451   1.402       .  A
C450        H461   1.082       .  S
C451        C460   1.365       .  A
C451        C452   1.379       .  A
C452        C453   1.408       .  A
C452        O458   1.319       .  A
C453        C454   1.406       .  A
C453        H462   1.082       .  S
C454        C457   1.369       .  A
O455        C456   1.331       .  A
C456        C457   1.394       .  A
C457        H463   1.082       .  S
O458        C459   1.334       .  A
C459        C460   1.391       .  A
C460        H464   1.082   1_455  S
C465        C470   1.381       .  A
C465        C466   1.399       .  A
C465        O471   1.311       .  A
C466        C467   1.396       .  A
C466        H477   1.082       .  S
C467        C476   1.359       .  A
C467        C468   1.380       .  A
C468        C469   1.403       .  A
C468        O474   1.314       .  A
C469        C470   1.401       .  A
C469        H478   1.082       .  S
C470        C473   1.363       .  A
O471        C472   1.327       .  A
C472        C473   1.390       .  A
C473        H479   1.082       .  S
O474        C475   1.330       .  A
C475        C476   1.386       .  A
C476        H480   1.082       .  S
C481        C486   1.379       .  A
C481        C482   1.407       .  A
C481        O487   1.318       .  A
C482        C483   1.405       .  A
C482        H493   1.082       .  S
C483        C492   1.369       .  A
C483        C484   1.379       .  A
C484        C485   1.402       .  A
C484        O490   1.314       .  A
C485        C486   1.400       .  A
C485        H494   1.082       .  S
C486        C489   1.363       .  A
O487        C488   1.334       .  A
C488        C489   1.389       .  A
C489       H1487   1.082       .  S
O490        C491   1.330       .  A
C491        C492   1.393       .  A
C492        H496   1.082       .  S
H495       C1481   1.082       .  S
C497        H498   1.113       .  S
C497        C503   1.518       .  S
C497        C502   1.524       .  S
C497        C501   1.518       .  S
C499        H500   1.110       .  S
C499        C505   1.552       .  S
C499        C504   1.556       .  S
C499        C506   1.548       .  S
C501        C504   1.369       .  D
C501        C907   1.457       .  S
C502        C505   1.376       .  D
C502        C920   1.484       .  S
C503        C506   1.368       .  D
C503        C939   1.464       .  S
C504        C952   1.495       .  S
C505        C971   1.471       .  S
C506        C987   1.482       .  S
C507        H508   1.109       .  S
C507        C513   1.553       .  S
C507        C512   1.555       .  S
C507        C511   1.556       .  S
C509        H510   1.113       .  S
C509        C515   1.516       .  S
C509        C514   1.510       .  S
C509        C516   1.515       .  S
C511        C514   1.370       .  D
C511        C872   1.491       .  S
C512        C515   1.372       .  D
C512        C891   1.473       .  S
C513        C516   1.376       .  D
C513        C859   1.486       .  S
C514        C843   1.459       .  S
C515        C808   1.473       .  S
C516        C827   1.470       .  S
C517        H518   1.111       .  S
C517        C523   1.538   1_655  S
C517       C1514   1.538       .  S
C519        H520   1.109       .  S
C519       C1517   1.543       .  S
C519        C526   1.541   1_655  S
C521        C524   1.377       .  D
C521        C955   1.499       .  S
C522       C1509   1.538       .  S
C522        C525   1.376       .  D
C522        C968   1.477       .  S
C523        C526   1.375       .  D
C523        C984   1.481       .  S
C524        C888   1.476       .  S
C525       C1511   1.543       .  S
C525        C856   1.491       .  S
C526        C875   1.491       .  S
C527        H528   1.112       .  S
C527        C533   1.524       .  S
C527        C532   1.519       .  S
C527        C531   1.524       .  S
C529        H530   1.109       .  S
C529        C535   1.553       .  S
C529        C534   1.556       .  S
C529        C536   1.554       .  S
C531        C534   1.372       .  D
C531        C731   1.477       .  S
C532        C535   1.377       .  D
C532        C744   1.470       .  S
C533        C536   1.373       .  D
C533        C715   1.476       .  S
C534        C763   1.483       .  S
C535        C779   1.496       .  S
C536        C795   1.484       .  S
C537        H538   1.112       .  S
C537        C543   1.513       .  S
C537        C542   1.530       .  S
C537        C541   1.509       .  S
C539        H540   1.109       .  S
C539        C545   1.547       .  S
C539        C544   1.549       .  S
C539        C546   1.552       .  S
C541        C544   1.367       .  D
C541        C632   1.461       .  S
C542        C545   1.376       .  D
C542        C616   1.472       .  S
C543        C546   1.372       .  D
C543        C651   1.467       .  S
C544        C667   1.474       .  S
C545        C696   1.489       .  S
C546        C680   1.481       .  S
C547        H548   1.111       .  S
C547        C553   1.540       .  S
C547       C1544   1.539       .  S
C547        C551   1.539       .  S
C549        H550   1.108       .  S
C549       C1547   1.544       .  S
C549        C554   1.539       .  S
C549        C556   1.539       .  S
C551        C554   1.378       .  D
C551        C664   1.479       .  S
C552       C1539   1.538   1_455  S
C552        C555   1.378       .  D
C552        C699   1.487   1_565  S
C553        C556   1.376       .  D
C553        C683   1.496   1_565  S
C554        C760   1.492       .  S
C555       C1541   1.544   1_455  S
C555        C792   1.490   1_565  S
C556        C776   1.479   1_565  S
O557       Ni563   1.921       .  S
O557        C578   1.267       .  A
O558       Ni581   1.925   1_554  S
O558        C567   1.263       .  A
O559      Ni1573   1.914       .  S
O559      Ni1071   1.921       .  S
O559       H1574   0.965       .  S
C560        O577   1.278       .  A
C560        C648   1.460       .  S
O561       Ni580   1.896       .  S
O561        C567   1.260       .  A
O562       Ni580   1.903   1_556  S
O562        C564   1.265       .  A
Ni563       O568   1.904       .  S
C564        O574   1.266       .  A
C564        C824   1.462       .  S
O565      Ni1573   1.905   1_455  S
O565        C571   1.274       .  A
O566        C571   1.277       .  A
C567        C635   1.463       .  S
O568        C570   1.265   1_556  A
O569       Ni580   1.901       .  S
C570        C619   1.465       .  S
C571        C840   1.460       .  S
H572        O573   0.966       .  S
O573       Ni581   1.924   1_554  S
O573       Ni580   1.905       .  S
Ni575       O579   1.914       .  S
Ni575       O577   1.921   1_556  S
Ni575      O1055   1.913       .  S
O576      Ni1573   1.915   1_454  S
C578       O1571   1.265   1_455  A
C578        C811   1.465       .  S
O579       C1570   1.265       .  A
Ni581      O1557   1.905       .  S
Ni581      O1568   1.915   1_556  S
Ni581      O1551   1.914       .  S
H582       O1551   0.965       .  S
O583       Ni589   1.909       .  S
O583        C604   1.263       .  A
O584       Ni607   1.910       .  S
O584       C1585   1.264       .  A
O585       Ni589   1.901       .  S
O585       Ni601   1.920       .  S
O585        H608   0.965       .  S
C586        O603   1.280       .  A
C586        O595   1.278   1_565  A
C586        C936   1.460       .  S
O587       Ni606   1.903       .  S
O587        C593   1.262       .  A
O588       Ni606   1.897       .  S
O588        C590   1.265       .  A
Ni589       O592   1.913       .  S
Ni589       O594   1.901       .  S
C590        C712   1.468       .  S
O591       Ni607   1.923       .  S
O591        C597   1.279       .  A
C593       O1576   1.264   1_455  A
C593        C904   1.455       .  S
O594        C596   1.266       .  A
C596        O602   1.270       .  A
C596        C923   1.473       .  S
C597        C747   1.466       .  S
H598       O1591   0.967       .  S
O599      Ni1103   1.919   1_465  S
O599      Ni1593   1.898   1_455  S
O599       H1590   0.967   1_455  S
O600      Ni1593   1.920   1_455  S
Ni601      O1592   1.920       .  S
Ni601       O605   1.912       .  S
Ni601      O1595   1.916       .  S
Ni601      O1591   1.898       .  S
O603      Ni1593   1.916   1_455  S
C604        O605   1.264       .  A
C604        C728   1.458       .  S
Ni607      O1095   1.922       .  S
C609        C614   1.381       .  A
C609        C610   1.403       .  A
C609        O615   1.320       .  A
C610        C611   1.404       .  A
C610        H621   1.082       .  S
C611        C620   1.361       .  A
C611        C612   1.381       .  A
C612        C613   1.398       .  A
C612        O618   1.316       .  A
C613        C614   1.398       .  A
C613        H622   1.083       .  S
C614        C617   1.353       .  A
O615        C616   1.330       .  A
C616        C617   1.388       .  A
C617        H623   1.082       .  S
O618        C619   1.328       .  A
C619        C620   1.392       .  A
C620        H624   1.083       .  S
C625        C630   1.380       .  A
C625        C626   1.407       .  A
C625        O631   1.318       .  A
C626        C627   1.405       .  A
C626        H637   1.082       .  S
C627        C636   1.369       .  A
C627        C628   1.381       .  A
C628        C629   1.396       .  A
C628        O634   1.310       .  A
C629        C630   1.393       .  A
C629        H638   1.082       .  S
C630        C633   1.354       .  A
O631        C632   1.331       .  A
C632        C633   1.383       .  A
C633        H639   1.083       .  S
O634        C635   1.326       .  A
C635        C636   1.394       .  A
C636        H640   1.082       .  S
C641        C646   1.381       .  A
C641        C642   1.403       .  A
C641        O647   1.321       .  A
C642        C643   1.404       .  A
C642        H653   1.082       .  S
C643        C652   1.358       .  A
C643        C644   1.382       .  A
C644        C645   1.392       .  A
C644        O650   1.312       .  A
C645        C646   1.393       .  A
C645        H654   1.082       .  S
C646        C649   1.346       .  A
O647        C648   1.332       .  A
C648        C649   1.387       .  A
O650        C651   1.324       .  A
C651        C652   1.392       .  A
C652        H656   1.083       .  S
C657        C662   1.380       .  A
C657        C658   1.406       .  A
C657        O663   1.317       .  A
C658        C659   1.404       .  A
C658        H669   1.082       .  S
C659        C668   1.367       .  A
C659        C660   1.380       .  A
C660        C661   1.399       .  A
C660        O666   1.312       .  A
C661        C662   1.397       .  A
C661        H670   1.082       .  S
C662        C665   1.360       .  A
O663        C664   1.333       .  A
C664        C665   1.387       .  A
C665        H671   1.083       .  S
O666        C667   1.328       .  A
C667        C668   1.392       .  A
C668        H672   1.083       .  S
C673        C678   1.379       .  A
C673        C674   1.405       .  A
C673        O679   1.314       .  A
C674        C675   1.402       .  A
C674        H685   1.082       .  S
C675        C684   1.366       .  A
C675        C676   1.379       .  A
C676        C677   1.401       .  A
C677        C678   1.398       .  A
C678        C681   1.363       .  A
O679        C680   1.332       .  A
C680        C681   1.389       .  A
C681        H687   1.082       .  S
O682        C683   1.335       .  A
C684        H688   1.082       .  S
C689        C694   1.379       .  A
C689        C690   1.406       .  A
C689        O695   1.319       .  A
C690        C691   1.405       .  A
C690        H701   1.082       .  S
C691        C700   1.367       .  A
C691        C692   1.378       .  A
C692        C693   1.406       .  A
C693        C694   1.404       .  A
C694        C697   1.365       .  A
O695        C696   1.332       .  A
C696        C697   1.394       .  A
C697        H703   1.082       .  S
O698        C699   1.332       .  A
C700        H704   1.082       .  S
C705        C710   1.380       .  A
C705        C706   1.406       .  A
C705        O711   1.321       .  A
C706        C707   1.405       .  A
C706        H717   1.082       .  S
C707        C716   1.365       .  A
C707        C708   1.379       .  A
C708        C709   1.398       .  A
C708        O714   1.311       .  A
C709        C710   1.397       .  A
C709        H718   1.083       .  S
C710        C713   1.356       .  A
O711        C712   1.332       .  A
C712        C713   1.389       .  A
C713        H719   1.083       .  S
O714        C715   1.326       .  A
C715        C716   1.393       .  A
C716        H720   1.082       .  S
C721        C726   1.381       .  A
C721        C722   1.393       .  A
C721        O727   1.312       .  A
C722        C723   1.393       .  A
C722        H733   1.083       .  S
C723        C732   1.347       .  A
C723        C724   1.379       .  A
C724        C725   1.407       .  A
C724        O730   1.323       .  A
C725        C726   1.408       .  A
C725        H734   1.082       .  S
C726        C729   1.365       .  A
O727        C728   1.325       .  A
C728        C729   1.394       .  A
C729        H735   1.083       .  S
O730        C731   1.334       .  A
C731        C732   1.386       .  A
C732        H736   1.078       .  S
C737        C742   1.380       .  A
C737        C738   1.406       .  A
C737        O743   1.318       .  A
C738        C739   1.405       .  A
C738        H749   1.082       .  S
C739        C748   1.365       .  A
C739        C740   1.381       .  A
C740        C741   1.398       .  A
C740        O746   1.313       .  A
C741        C742   1.396       .  A
C741        H750   1.082       .  S
C742        C745   1.356       .  A
O743        C744   1.332       .  A
C744        C745   1.386       .  A
C745        H751   1.082       .  S
O746        C747   1.328       .  A
C747        C748   1.394       .  A
C748        H752   1.082       .  S
C753        C758   1.378       .  A
C753        C754   1.401       .  A
C753        O759   1.311       .  A
C754        C755   1.398       .  A
C754        H765   1.083       .  S
C755        C764   1.361       .  A
C755        C756   1.378       .  A
C756        C757   1.409       .  A
C756        O762   1.318       .  A
C757        C758   1.406       .  A
C757        H766   1.082       .  S
C758        C761   1.370       .  A
O759        C760   1.329       .  A
C760        C761   1.396       .  A
C761        H767   1.082       .  S
O762        C763   1.334       .  A
C763        C764   1.389       .  A
C764        H768   1.082       .  S
C769        C774   1.377       .  A
C769        C770   1.412       .  A
C769        O775   1.321       .  A
C770        C771   1.409       .  A
C770        H781   1.082       .  S
C771        C780   1.375       .  A
C771        C772   1.377       .  A
C772        C773   1.405       .  A
C772        O778   1.315       .  A
C773        C774   1.402       .  A
C776        C777   1.392   1_545  A
C777        H783   1.083       .  S
O778        C779   1.330       .  A
C779        C780   1.397       .  A
C780        H784   1.082       .  S
C785        C790   1.379       .  A
C785        C786   1.408       .  A
C785        O791   1.320       .  A
C786        C787   1.406       .  A
C786        H797   1.082       .  S
C787        C796   1.370       .  A
C787        C788   1.379       .  A
C788        O794   1.315       .  A
C789        H798   1.082       .  S
C792        C793   1.392       .  A
C793        H799   1.082   1_545  S
O794        C795   1.329       .  A
C795        C796   1.393       .  A
C796        H800   1.082       .  S
C801        C806   1.380       .  A
C801        C802   1.396       .  A
C801        O807   1.309       .  A
C802        C803   1.394       .  A
C802        H813   1.083       .  S
C803        C812   1.355       .  A
C803        C804   1.381       .  A
C804        C805   1.409       .  A
C804        O810   1.321       .  A
C805        C806   1.407       .  A
C805        H814   1.082       .  S
C806        C809   1.370       .  A
O807        C808   1.327       .  A
C808        C809   1.394       .  A
C809        H815   1.082       .  S
O810        C811   1.333       .  A
C811        C812   1.387       .  A
C812        H816   1.083       .  S
C817        C822   1.381       .  A
C817        C818   1.401       .  A
C817        O823   1.315       .  A
C818        C819   1.399       .  A
C818        H829   1.082       .  S
C819        C828   1.360       .  A
C819        C820   1.379       .  A
C820        C821   1.401       .  A
C820        O826   1.313       .  A
C821        C822   1.400       .  A
C821        H830   1.083       .  S
C822        C825   1.360       .  A
O823        C824   1.329       .  A
C824        C825   1.391       .  A
C825        H831   1.083       .  S
O826        C827   1.330       .  A
C827        C828   1.390       .  A
C828        H832   1.082       .  S
C833        C838   1.381       .  A
C833        C834   1.399       .  A
C833        O839   1.313       .  A
C834        C835   1.397       .  A
C834        H845   1.082       .  S
C835        C844   1.358       .  A
C835        C836   1.381       .  A
C836        C837   1.401       .  A
C836        O842   1.314       .  A
C837        C838   1.399       .  A
C837        H846   1.082       .  S
C838        C841   1.360       .  A
O839        C840   1.328       .  A
C840        C841   1.390       .  A
C841        H847   1.083       .  S
O842        C843   1.328       .  A
C843        C844   1.386       .  A
C844        H848   1.082       .  S
C849        C854   1.378       .  A
C849        C850   1.412       .  A
C849        O855   1.320       .  A
C850        C851   1.409       .  A
C850        H861   1.082       .  S
C851        C860   1.374       .  A
C851        C852   1.378       .  A
C852        C853   1.398       .  A
C852        O858   1.310       .  A
C853        C854   1.396       .  A
C853        H862   1.082       .  S
C854        C857   1.360       .  A
O855        C856   1.337       .  A
C856        C857   1.388       .  A
C857        H863   1.082       .  S
O858        C859   1.326       .  A
C859        C860   1.397       .  A
C860        H864   1.082       .  S
C865        C870   1.378       .  A
C865        C866   1.407       .  A
C865        O871   1.317       .  A
C866        C867   1.404       .  A
C866        H877   1.082       .  S
C867        C876   1.368       .  A
C867        C868   1.378       .  A
C868        C869   1.406       .  A
C868        O874   1.317       .  A
C869        C870   1.404       .  A
C869        H878   1.082       .  S
C870        C873   1.368       .  A
O871        C872   1.334       .  A
C872        C873   1.392       .  A
C873        H879   1.082       .  S
O874        C875   1.333       .  A
C875        C876   1.393       .  A
C881        C886   1.380       .  A
C881        C882   1.400       .  A
C881        O887   1.312       .  A
C882        C883   1.398       .  A
C882        H893   1.082       .  S
C883        C892   1.361       .  A
C883        C884   1.380       .  A
C884        C885   1.406       .  A
C884        O890   1.317       .  A
C885        C886   1.403       .  A
C885        H894   1.082       .  S
C886        C889   1.366       .  A
O887        C888   1.329       .  A
C888        C889   1.391       .  A
C889        H895   1.082       .  S
O890        C891   1.332       .  A
C891        C892   1.387       .  A
C892        H896   1.082       .  S
C897        C902   1.381       .  A
C897        C898   1.397       .  A
C897        O903   1.311       .  A
C898        C899   1.395       .  A
C898        H909   1.083       .  S
C899        C908   1.352       .  A
C899        C900   1.381       .  A
C900        C901   1.401       .  A
C900        O906   1.316       .  A
C901        C902   1.400       .  A
C901        H910   1.082       .  S
C902        C905   1.361       .  A
O903        C904   1.327       .  A
C904        C905   1.390       .  A
C905       H1903   1.082   1_455  S
O906        C907   1.328       .  A
C907        C908   1.385       .  A
C908        H912   1.083       .  S
H911       C1897   1.082       .  S
C913        C918   1.380       .  A
C913        C914   1.400       .  A
C913        O919   1.315       .  A
C914        C915   1.399       .  A
C914        H925   1.083       .  S
C915        C924   1.358       .  A
C915        C916   1.380       .  A
C916        C917   1.408       .  A
C916        O922   1.323       .  A
C917        C918   1.407       .  A
C917        H926   1.082       .  S
C918        C921   1.367       .  A
O919        C920   1.330       .  A
C920        C921   1.395       .  A
C921        H927   1.082       .  S
O922        C923   1.333       .  A
C923        C924   1.391       .  A
C924        H928   1.083       .  S
C929        C934   1.381       .  A
C929        C930   1.401       .  A
C929        O935   1.314       .  A
C930        C931   1.399       .  A
C930        H941   1.082       .  S
C931        C940   1.358       .  A
C931        C932   1.382       .  A
C932        C933   1.399       .  A
C932        O938   1.314       .  A
C933        C934   1.398       .  A
C933        H942   1.082       .  S
C934        C937   1.358       .  A
O935        C936   1.330       .  A
C936        C937   1.389       .  A
C937        H943   1.083       .  S
O938        C939   1.327       .  A
C939        C940   1.388       .  A
C940        H944   1.083       .  S
C945        C950   1.378       .  A
C945        C946   1.410       .  A
C945        O951   1.321       .  A
C946        C947   1.408       .  A
C946        H957   1.082       .  S
C947        C956   1.371       .  A
C947        C948   1.378       .  A
C948        C949   1.409       .  A
C948        O954   1.321       .  A
C949        C950   1.407       .  A
C949        H958   1.082       .  S
C950        C953   1.371       .  A
O951        C952   1.335       .  A
C952        C953   1.393       .  A
C953        H959   1.082       .  S
O954        C955   1.334       .  A
C955        C956   1.395       .  A
C956        H960   1.083   1_455  S
C961        C966   1.380       .  A
C961        C962   1.400       .  A
C961        O967   1.311       .  A
C962        C963   1.397       .  A
C962        H973   1.082       .  S
C963        C972   1.359       .  A
C963        C964   1.380       .  A
C964        C965   1.404       .  A
C964        O970   1.315       .  A
C965        C966   1.402       .  A
C965        H974   1.082       .  S
C966        C969   1.365       .  A
O967        C968   1.329       .  A
C968        C969   1.390       .  A
C969        H975   1.082       .  S
O970        C971   1.330       .  A
C971        C972   1.388       .  A
C972        H976   1.082       .  S
C977        C982   1.380       .  A
C977        C978   1.408       .  A
C977        O983   1.318       .  A
C978        C979   1.405       .  A
C978        H989   1.082       .  S
C979        C988   1.370       .  A
C979        C980   1.380       .  A
C980        C981   1.402       .  A
C980        O986   1.314       .  A
C981        C982   1.399       .  A
C981        H990   1.082       .  S
C982        C985   1.363       .  A
O983        C984   1.333       .  A
C984        C985   1.388       .  A
C985       H1983   1.082   1_455  S
O986        C987   1.331       .  A
C987        C988   1.392       .  A
C988        H992   1.082       .  S
H991       C1977   1.082       .  S
C993        H994   1.113       .  S
C993        C999   1.518       .  S
C993        C998   1.520       .  S
C993        C997   1.519       .  S
C995        H996   1.110       .  S
C995       C1001   1.549       .  S
C995       C1000   1.555       .  S
C995       C1002   1.548       .  S
C997       C1000   1.372       .  D
C997       C1403   1.469       .  S
C998       C1001   1.370       .  D
C998       C1416   1.475       .  S
C999       C1002   1.370       .  D
C999       C1435   1.466       .  S
C1000      C1448   1.486       .  S
C1001      C1467   1.468       .  S
C1002      C1483   1.482       .  S
C1003      H1004   1.109       .  S
C1003      C1009   1.564       .  S
C1003      C1008   1.554       .  S
C1003      C1007   1.553       .  S
C1005      H1006   1.113       .  S
C1005      C1011   1.520       .  S
C1005      C1010   1.516       .  S
C1005      C1012   1.522       .  S
C1007      C1010   1.372       .  D
C1007      C1368   1.487       .  S
C1008      C1011   1.371       .  D
C1008      C1387   1.478       .  S
C1009      C1012   1.379       .  D
C1009      C1355   1.503       .  S
C1010      C1339   1.468       .  S
C1011      C1304   1.476       .  S
C1012      C1323   1.473       .  S
C1013      H1014   1.111       .  S
C1013      C1019   1.542       .  S
C1013      C1513   1.536       .  S
C1015      H1016   1.109       .  S
C1015      C1516   1.545       .  S
C1015      C1022   1.538       .  S
C1017      C1509   1.538   1_545  S
C1017      C1020   1.375       .  D
C1017      C1451   1.488       .  S
C1018      C1021   1.381       .  D
C1018      C1464   1.472       .  S
C1019      C1022   1.372       .  D
C1019      C1480   1.484       .  S
C1020      C1511   1.543   1_545  S
C1020      C1384   1.482       .  S
C1021      C1352   1.507       .  S
C1022      C1371   1.486       .  S
C1023      H1024   1.113       .  S
C1023      C1029   1.521       .  S
C1023      C1028   1.512       .  S
C1023      C1027   1.524       .  S
C1025      H1026   1.109       .  S
C1025      C1031   1.557       .  S
C1025      C1030   1.556       .  S
C1025      C1032   1.554       .  S
C1027      C1030   1.374       .  D
C1027      C1227   1.476       .  S
C1028      C1031   1.370       .  D
C1028      C1240   1.467       .  S
C1029      C1032   1.376       .  D
C1029      C1211   1.471       .  S
C1030      C1259   1.490       .  S
C1031      C1275   1.487       .  S
C1032      C1291   1.488       .  S
C1033      H1034   1.110       .  S
C1033      C1039   1.523       .  S
C1033      C1038   1.520       .  S
C1033      C1037   1.520       .  S
C1035      H1036   1.111       .  S
C1035      C1041   1.553       .  S
C1035      C1040   1.569       .  S
C1035      C1042   1.559       .  S
C1037      C1040   1.376       .  D
C1037      C1128   1.482       .  S
C1038      C1041   1.366       .  D
C1038      C1112   1.466       .  S
C1039      C1042   1.374       .  D
C1039      C1147   1.474       .  S
C1040      C1163   1.492       .  S
C1041      C1192   1.485       .  S
C1042      C1176   1.497       .  S
C1043      H1044   1.110       .  S
C1043      C1049   1.543       .  S
C1043      C1047   1.541       .  S
C1045      H1046   1.109       .  S
C1045      C1050   1.546       .  S
C1045      C1052   1.540       .  S
C1047      C1050   1.382       .  D
C1047      C1160   1.495       .  S
C1048      C1051   1.375       .  D
C1048      C1195   1.493       .  S
C1049      C1052   1.378       .  D
C1049      C1179   1.479       .  S
C1050      C1256   1.491       .  S
C1051      C1288   1.484       .  S
C1052      C1272   1.501       .  S
O1053     Ni1059   1.917       .  S
O1053      C1074   1.266       .  A
O1054     Ni1077   1.922   1_554  S
O1054      C1063   1.266       .  A
O1055     Ni1555   1.907       .  S
C1056      O1073   1.283   1_565  A
C1056      O1561   1.275       .  A
C1056      C1144   1.468   1_565  S
O1057     Ni1076   1.911       .  S
O1057      C1063   1.262       .  A
O1058     Ni1076   1.894   1_556  S
O1058      C1060   1.263       .  A
Ni1059     O1558   1.925   1_545  S
Ni1059     O1064   1.900       .  S
Ni1059     O1551   1.908   1_545  S
C1060      O1070   1.266       .  A
C1060      C1320   1.463       .  S
O1061      C1067   1.277       .  A
O1062     Ni1555   1.921       .  S
O1062      C1067   1.277       .  A
C1063      C1131   1.463       .  S
O1064      C1066   1.263   1_556  A
O1065     Ni1076   1.906       .  S
O1065      C1552   1.277       .  A
C1066      O1568   1.264   1_545  A
C1066      C1115   1.460       .  S
C1067      C1336   1.462       .  S
H1068      O1069   0.966       .  S
O1069     Ni1077   1.909   1_554  S
O1069     Ni1567   1.907   1_554  S
O1069     Ni1076   1.900       .  S
O1070     Ni1567   1.920       .  S
Ni1071     O1566   1.912       .  S
Ni1071     O1075   1.928   1_565  S
Ni1071     O1073   1.938   1_566  S
Ni1071     O1565   1.910   1_556  S
O1072      C1562   1.266       .  A
C1074      C1307   1.473       .  S
O1079     Ni1085   1.912       .  S
O1079      C1100   1.264       .  A
O1080     Ni1103   1.921       .  S
O1081     Ni1085   1.900       .  S
O1081     Ni1599   1.901       .  S
O1081     Ni1097   1.923       .  S
O1081      H1104   0.964       .  S
C1082      O1099   1.282       .  A
C1082      O1091   1.277       .  A
C1082      C1432   1.463       .  S
O1083     Ni1102   1.907       .  S
O1083      C1089   1.263       .  A
O1084     Ni1102   1.900       .  S
O1084      C1086   1.265       .  A
Ni1085     O1088   1.917       .  S
Ni1085     O1090   1.899       .  S
C1086      O1592   1.265   1_545  A
C1086      C1208   1.466       .  S
O1087     Ni1103   1.923       .  S
O1087      C1093   1.281   1_545  A
O1088      C1589   1.278       .  A
C1089      C1400   1.463       .  S
O1090      C1092   1.266       .  A
O1091     Ni1598   1.913       .  S
C1092      O1098   1.267       .  A
C1092      C1419   1.469       .  S
C1093      O1584   1.277       .  A
C1093      C1243   1.462   1_565  S
O1095     Ni1598   1.901       .  S
O1096      C1582   1.268       .  A
Ni1097     O1101   1.919       .  S
O1098     Ni1599   1.925       .  S
C1100      O1101   1.268       .  A
C1100      C1224   1.464       .  S
Ni1102     O1587   1.916       .  S
Ni1102     O1591   1.901   1_545  S
Ni1103     O1594   1.931   1_545  S
Ni1103     O1577   1.901   1_545  S
C1105      C1110   1.381       .  A
C1105      C1106   1.404       .  A
C1105      O1111   1.320       .  A
C1106      C1107   1.403       .  A
C1106      H1117   1.082   1_545  S
C1107      C1116   1.361   1_545  A
C1107      C1108   1.382       .  A
C1108      C1109   1.397       .  A
C1108      O1114   1.314       .  A
C1109      C1110   1.397       .  A
C1109      H1118   1.082       .  S
C1110      C1113   1.353       .  A
O1111      C1112   1.330       .  A
C1112      C1113   1.385       .  A
C1113      H1119   1.081       .  S
O1114      C1115   1.327       .  A
C1115      C1116   1.391   1_545  A
C1116      H1120   1.083       .  S
C1121      C1126   1.379       .  A
C1121      C1122   1.407       .  A
C1121      O1127   1.324       .  A
C1122      C1123   1.408       .  A
C1122      H1133   1.082       .  S
C1123      C1132   1.366       .  A
C1123      C1124   1.381       .  A
C1124      C1125   1.396       .  A
C1124      O1130   1.314       .  A
C1125      C1126   1.396       .  A
C1125      H1134   1.083       .  S
C1126      C1129   1.349       .  A
O1127      C1128   1.334       .  A
C1128      C1129   1.389       .  A
C1129      H1135   1.080       .  S
O1130      C1131   1.327       .  A
C1131      C1132   1.394       .  A
C1132      H1136   1.082       .  S
C1137      C1142   1.381       .  A
C1137      C1138   1.402       .  A
C1137      O1143   1.324       .  A
C1138      C1139   1.405       .  A
C1138      H1149   1.082       .  S
C1139      C1148   1.355       .  A
C1139      C1140   1.382       .  A
C1140      C1141   1.397       .  A
C1140      O1146   1.319       .  A
C1141      C1142   1.399       .  A
C1141      H1150   1.082   1_545  S
C1142      C1145   1.349   1_545  A
O1143      C1144   1.331       .  A
C1144      C1145   1.391   1_545  A
C1145      H1647   1.083       .  S
O1146      C1147   1.328       .  A
C1147      C1148   1.392       .  A
C1148      H1152   1.083       .  S
H1151      C1641   1.083       .  S
C1153      C1158   1.379       .  A
C1153      C1154   1.410       .  A
C1153      O1159   1.327       .  A
C1154      C1155   1.411       .  A
C1154      H1165   1.082       .  S
C1155      C1164   1.365       .  A
C1155      C1156   1.380       .  A
C1156      C1157   1.404       .  A
C1156      O1162   1.324       .  A
C1157      C1158   1.404       .  A
C1157      H1166   1.082       .  S
C1158      C1161   1.360       .  A
O1159      C1160   1.336       .  A
C1160      C1161   1.393       .  A
C1161      H1167   1.082       .  S
O1162      C1163   1.331       .  A
C1163      C1164   1.399       .  A
C1164      H1168   1.082       .  S
C1169      C1174   1.379       .  A
C1169      C1170   1.409       .  A
C1169      O1175   1.322       .  A
C1170      C1171   1.407       .  A
C1170      H1181   1.082       .  S
C1171      C1180   1.369       .  A
C1171      C1172   1.378       .  A
C1172      C1173   1.410       .  A
C1172      O1674   1.321       .  A
C1173      C1174   1.409       .  A
C1173      H1678   1.082       .  S
C1174      C1177   1.372       .  A
O1175      C1176   1.335       .  A
C1176      C1177   1.395       .  A
C1177      H1183   1.082       .  S
O1178      C1668   1.311       .  A
O1178      C1179   1.328       .  A
C1179      C1676   1.392       .  A
C1180      C1675   1.393       .  A
C1180      H1184   1.082       .  S
H1182      C1669   1.082       .  S
C1185      C1190   1.379       .  A
C1185      C1186   1.407       .  A
C1185      O1191   1.319       .  A
C1186      C1187   1.405       .  A
C1186      H1197   1.082       .  S
C1187      C1196   1.368       .  A
C1187      C1188   1.379       .  A
C1188      C1189   1.406       .  A
C1188      O1690   1.318       .  A
C1189      C1190   1.403       .  A
C1189      H1694   1.082       .  S
C1190      C1193   1.367       .  A
O1191      C1192   1.334       .  A
C1192      C1193   1.390       .  A
C1193      H1199   1.082       .  S
O1194      C1684   1.318       .  A
O1194      C1195   1.333       .  A
C1195      C1692   1.393       .  A
C1196      C1691   1.392       .  A
C1196      H1200   1.082       .  S
H1198      C1685   1.083       .  S
C1201      C1206   1.381       .  A
C1201      C1202   1.406       .  A
C1201      O1207   1.320       .  A
C1202      C1203   1.404       .  A
C1202      H1213   1.082   1_545  S
C1203      C1212   1.364       .  A
C1203      C1204   1.380       .  A
C1204      C1205   1.396       .  A
C1204      O1210   1.310       .  A
C1205      C1206   1.395       .  A
C1205      H1214   1.083       .  S
C1206      C1209   1.354       .  A
O1207      C1208   1.333       .  A
C1208      C1209   1.388       .  A
C1209      H1215   1.083       .  S
O1210      C1211   1.325       .  A
C1211      C1212   1.393       .  A
C1212      H1216   1.082       .  S
C1217      C1222   1.381       .  A
C1217      C1218   1.398       .  A
C1217      O1223   1.315       .  A
C1218      C1219   1.398       .  A
C1218      H1229   1.083       .  S
C1219      C1228   1.351       .  A
C1219      C1220   1.379       .  A
C1220      C1221   1.405       .  A
C1220      O1226   1.322       .  A
C1221      C1222   1.406       .  A
C1221      H1230   1.082       .  S
C1222      C1225   1.364       .  A
O1223      C1224   1.329       .  A
C1224      C1225   1.392       .  A
C1225      H1231   1.082       .  S
O1226      C1227   1.332       .  A
C1227      C1228   1.388       .  A
C1228      H1232   1.077       .  S
C1233      C1238   1.381       .  A
C1233      C1234   1.401       .  A
C1233      O1239   1.316       .  A
C1234      C1235   1.400       .  A
C1234      H1245   1.082       .  S
C1235      C1244   1.361       .  A
C1235      C1236   1.381       .  A
C1236      C1237   1.400       .  A
C1236      O1242   1.314   1_545  A
C1237      C1238   1.399       .  A
C1237      H1246   1.082   1_545  S
C1238      C1241   1.358       .  A
O1239      C1240   1.329       .  A
C1240      C1241   1.388       .  A
C1241      H1247   1.083       .  S
O1242      C1243   1.330   1_565  A
C1243      C1244   1.390       .  A
C1244      H1248   1.082       .  S
C1249      C1254   1.379       .  A
C1249      C1250   1.406       .  A
C1249      O1255   1.319       .  A
C1250      C1251   1.405       .  A
C1250      H1261   1.082       .  S
C1251      C1260   1.366       .  A
C1251      C1252   1.378       .  A
C1252      C1253   1.405       .  A
C1252      O1258   1.318       .  A
C1253      C1254   1.403       .  A
C1253      H1262   1.082       .  S
C1254      C1257   1.364       .  A
O1255      C1256   1.333       .  A
C1256      C1257   1.393       .  A
C1257      H1263   1.081       .  S
O1258      C1259   1.332       .  A
C1259      C1260   1.394       .  A
C1260      H1264   1.081       .  S
C1265      C1270   1.380       .  A
C1265      C1266   1.402       .  A
C1265      O1271   1.313       .  A
C1266      C1267   1.400       .  A
C1266      H1277   1.082       .  S
C1267      C1276   1.367       .  A
C1267      C1268   1.378       .  A
C1268      C1269   1.407       .  A
C1268      O1274   1.315       .  A
C1269      C1270   1.403       .  A
C1269      H1774   1.083       .  S
C1270      C1769   1.366   1_545  A
O1271      C1768   1.329       .  A
C1272      C1273   1.393       .  A
C1272      O1767   1.337       .  A
C1273      C1766   1.367       .  A
C1273      H1279   1.082       .  S
O1274      C1275   1.333       .  A
C1275      C1276   1.390       .  A
C1276      H1280   1.082       .  S
H1278      C1765   1.082       .  S
C1281      C1286   1.378       .  A
C1281      C1282   1.406       .  A
C1281      O1287   1.315       .  A
C1282      C1283   1.403       .  A
C1282      H1293   1.082       .  S
C1283      C1292   1.368       .  A
C1283      C1284   1.377       .  A
C1284      C1781   1.402       .  A
C1284      O1290   1.312       .  A
C1285      C1780   1.403       .  A
C1285      C1782   1.401       .  A
C1285      H1294   1.082       .  S
C1286      C1781   1.400       .  A
C1286      C1785   1.363       .  A
O1287      C1784   1.332       .  A
C1288      C1289   1.389       .  A
C1288      O1783   1.334       .  A
C1289      C1782   1.363       .  A
C1289      H1295   1.082       .  S
O1290      C1291   1.329       .  A
C1291      C1292   1.394       .  A
C1292      H1296   1.081       .  S
C1297      C1302   1.380       .  A
C1297      C1298   1.393       .  A
C1297      O1303   1.310       .  A
C1298      C1299   1.393       .  A
C1298      H1309   1.082       .  S
C1299      C1308   1.351       .  A
C1299      C1300   1.380       .  A
C1300      C1301   1.414       .  A
C1300      O1306   1.327       .  A
C1301      C1302   1.413       .  A
C1301      H1310   1.082       .  S
C1302      C1305   1.373       .  A
O1303      C1304   1.325       .  A
C1304      C1305   1.398       .  A
C1305      H1311   1.082       .  S
O1306      C1307   1.337       .  A
C1307      C1308   1.387       .  A
C1308      H1312   1.083       .  S
C1313      C1318   1.381       .  A
C1313      C1314   1.403       .  A
C1313      O1319   1.319       .  A
C1314      C1315   1.402       .  A
C1314      H1325   1.082       .  S
C1315      C1324   1.361       .  A
C1315      C1316   1.380       .  A
C1316      C1317   1.399       .  A
C1316      O1322   1.314       .  A
C1317      C1318   1.398       .  A
C1317      H1326   1.083       .  S
C1318      C1321   1.355       .  A
O1319      C1320   1.330       .  A
C1320      C1321   1.389       .  A
C1321      H1327   1.083       .  S
O1322      C1323   1.329       .  A
C1323      C1324   1.391       .  A
C1324      H1328   1.082       .  S
C1329      C1334   1.381       .  A
C1329      C1330   1.399       .  A
C1329      O1335   1.313       .  A
C1330      C1331   1.397       .  A
C1330      H1341   1.082       .  S
C1331      C1340   1.356       .  A
C1331      C1332   1.380       .  A
C1332      C1333   1.402       .  A
C1332      O1338   1.316       .  A
C1333      C1334   1.401       .  A
C1333      H1342   1.082       .  S
C1334      C1337   1.361       .  A
O1335      C1336   1.329       .  A
C1336      C1337   1.391       .  A
C1337      H1343   1.082       .  S
O1338      C1339   1.330       .  A
C1339      C1340   1.387       .  A
C1340      H1344   1.082       .  S
C1345      C1350   1.376       .  A
C1345      C1346   1.410       .  A
C1345      O1351   1.320       .  A
C1346      C1347   1.407       .  A
C1346      H1357   1.082       .  S
C1347      C1356   1.373       .  A
C1347      C1348   1.376       .  A
C1348      C1349   1.409       .  A
C1348      O1354   1.318       .  A
C1349      C1350   1.406       .  A
C1349      H1358   1.082       .  S
C1350      C1353   1.370       .  A
O1351      C1352   1.336       .  A
C1352      C1353   1.397       .  A
C1353      H1359   1.081       .  S
O1354      C1355   1.334       .  A
C1355      C1356   1.396       .  A
C1356      H1360   1.082       .  S
C1361      C1366   1.378       .  A
C1361      C1362   1.404       .  A
C1361      O1367   1.314       .  A
C1362      C1363   1.401       .  A
C1362      H1373   1.082       .  S
C1363      C1372   1.365       .  A
C1363      C1364   1.379       .  A
C1364      C1365   1.409       .  A
C1364      O1370   1.319       .  A
C1365      C1366   1.406       .  A
C1365      H1374   1.082       .  S
C1366      C1369   1.371       .  A
O1367      C1368   1.330       .  A
C1368      C1369   1.393       .  A
C1369      H1375   1.082       .  S
O1370      C1371   1.334       .  A
C1371      C1372   1.390       .  A
C1372      H1872   1.082       .  S
H1376      C1868   1.082       .  S
C1377      C1382   1.379       .  A
C1377      C1378   1.404       .  A
C1377      O1383   1.315       .  A
C1378      C1379   1.402       .  A
C1378      H1389   1.082       .  S
C1379      C1388   1.365       .  A
C1379      C1380   1.380       .  A
C1380      C1381   1.405       .  A
C1380      O1386   1.316       .  A
C1381      C1382   1.402       .  A
C1381      H1390   1.082       .  S
C1382      C1385   1.366       .  A
O1383      C1384   1.331       .  A
C1384      C1385   1.390       .  A
C1385      H1391   1.082       .  S
O1386      C1387   1.331       .  A
C1387      C1388   1.390       .  A
C1388      H1392   1.082       .  S
C1393      C1398   1.381       .  A
C1393      C1394   1.398       .  A
C1393      O1399   1.313       .  A
C1394      C1395   1.396       .  A
C1394      H1405   1.083       .  S
C1395      C1404   1.352       .  A
C1395      C1396   1.380       .  A
C1396      C1397   1.404       .  A
C1396      O1402   1.320       .  A
C1397      C1398   1.404       .  A
C1397      H1406   1.082       .  S
C1398      C1401   1.365       .  A
O1399      C1400   1.329       .  A
C1400      C1401   1.392       .  A
O1402      C1403   1.330       .  A
C1403      C1404   1.387       .  A
C1404      H1408   1.081       .  S
C1409      C1414   1.380       .  A
C1409      C1410   1.395       .  A
C1409      O1415   1.309       .  A
C1410      C1411   1.394       .  A
C1410      H1421   1.083       .  S
C1411      C1420   1.353       .  A
C1411      C1412   1.380       .  A
C1412      C1413   1.409       .  A
C1412      O1418   1.322       .  A
C1413      C1414   1.408       .  A
C1413      H1422   1.082       .  S
C1414      C1417   1.369       .  A
O1415      C1416   1.325       .  A
C1416      C1417   1.395       .  A
C1417      H1423   1.082       .  S
O1418      C1419   1.334       .  A
C1419      C1420   1.387       .  A
C1420      H1424   1.083       .  S
C1425      C1430   1.380       .  A
C1425      C1426   1.403       .  A
C1425      O1431   1.315       .  A
C1426      C1427   1.401       .  A
C1426      H1437   1.082       .  S
C1427      C1436   1.361       .  A
C1427      C1428   1.381       .  A
C1428      C1429   1.399       .  A
C1428      O1434   1.313       .  A
C1429      C1430   1.397       .  A
C1429      H1438   1.082       .  S
C1430      C1433   1.360       .  A
O1431      C1432   1.331       .  A
C1432      C1433   1.388       .  A
C1433      H1439   1.082       .  S
O1434      C1435   1.327       .  A
C1435      C1436   1.390       .  A
C1436      H1440   1.083       .  S
C1441      C1446   1.379       .  A
C1441      C1442   1.404       .  A
C1441      O1447   1.316       .  A
C1442      C1443   1.402       .  A
C1442      H1453   1.082       .  S
C1443      C1452   1.365       .  A
C1443      C1444   1.379       .  A
C1444      C1445   1.408       .  A
C1444      O1450   1.319       .  A
C1445      C1446   1.406       .  A
C1445      H1454   1.082       .  S
C1446      C1449   1.369       .  A
O1447      C1448   1.331       .  A
C1448      C1449   1.394       .  A
C1449      H1455   1.082       .  S
O1450      C1451   1.334       .  A
C1451      C1452   1.391       .  A
C1452      H1456   1.082       .  S
C1457      C1462   1.381       .  A
C1457      C1458   1.399       .  A
C1457      O1463   1.311       .  A
C1458      C1459   1.396       .  A
C1458      H1469   1.082       .  S
C1459      C1468   1.359       .  A
C1459      C1460   1.380       .  A
C1460      C1461   1.403       .  A
C1460      O1466   1.314       .  A
C1461      C1462   1.401       .  A
C1461      H1470   1.082       .  S
C1462      C1465   1.363       .  A
O1463      C1464   1.327       .  A
C1464      C1465   1.390       .  A
C1465      H1471   1.082       .  S
O1466      C1467   1.330       .  A
C1467      C1468   1.386       .  A
C1468      H1472   1.082       .  S
C1473      C1478   1.379       .  A
C1473      C1474   1.407       .  A
C1473      O1479   1.318       .  A
C1474      C1475   1.405       .  A
C1474      H1485   1.082       .  S
C1475      C1484   1.369       .  A
C1475      C1476   1.379       .  A
C1476      C1477   1.402       .  A
C1476      O1482   1.314       .  A
C1477      C1478   1.400       .  A
C1477      H1486   1.082       .  S
C1478      C1481   1.363       .  A
O1479      C1480   1.334       .  A
C1480      C1481   1.389       .  A
O1482      C1483   1.330       .  A
C1483      C1484   1.393       .  A
C1484      H1488   1.082       .  S
C1489      H1490   1.113       .  S
C1489      C1495   1.518       .  S
C1489      C1494   1.524       .  S
C1489      C1493   1.518       .  S
C1491      H1492   1.110       .  S
C1491      C1497   1.552       .  S
C1491      C1496   1.556       .  S
C1491      C1498   1.548       .  S
C1493      C1496   1.369       .  D
C1493      C1899   1.457       .  S
C1494      C1497   1.376       .  D
C1494      C1912   1.483       .  S
C1495      C1498   1.368       .  D
C1495      C1931   1.464       .  S
C1496      C1944   1.495       .  S
C1497      C1963   1.472       .  S
C1498      C1979   1.482       .  S
C1499      H1500   1.109       .  S
C1499      C1505   1.553       .  S
C1499      C1504   1.555       .  S
C1499      C1503   1.556       .  S
C1501      H1502   1.113       .  S
C1501      C1507   1.516       .  S
C1501      C1506   1.510       .  S
C1501      C1508   1.515       .  S
C1503      C1506   1.370       .  D
C1503      C1864   1.491       .  S
C1504      C1507   1.372       .  D
C1504      C1883   1.473       .  S
C1505      C1508   1.376       .  D
C1505      C1851   1.486       .  S
C1506      C1835   1.459       .  S
C1507      C1800   1.474       .  S
C1508      C1819   1.470       .  S
C1509      H1510   1.111       .  S
C1509      C1515   1.539       .  S
C1511      H1512   1.109       .  S
C1511      C1518   1.540       .  S
C1513      C1516   1.377       .  D
C1513      C1947   1.499       .  S
C1514      C1517   1.376       .  D
C1514      C1960   1.477       .  S
C1515      C1518   1.375       .  D
C1515      C1976   1.481       .  S
C1516      C1880   1.475       .  S
C1517      C1848   1.492       .  S
C1518      C1867   1.491       .  S
C1519      H1520   1.112       .  S
C1519      C1525   1.524       .  S
C1519      C1524   1.519       .  S
C1519      C1523   1.524       .  S
C1521      H1522   1.109       .  S
C1521      C1527   1.553       .  S
C1521      C1526   1.556       .  S
C1521      C1528   1.554       .  S
C1523      C1526   1.372       .  D
C1523      C1723   1.477       .  S
C1524      C1527   1.377       .  D
C1524      C1736   1.470       .  S
C1525      C1528   1.373       .  D
C1525      C1707   1.476       .  S
C1526      C1755   1.483       .  S
C1527      C1771   1.497       .  S
C1528      C1787   1.484       .  S
C1529      H1530   1.112       .  S
C1529      C1535   1.513       .  S
C1529      C1534   1.530       .  S
C1529      C1533   1.509       .  S
C1531      H1532   1.109       .  S
C1531      C1537   1.547       .  S
C1531      C1536   1.549       .  S
C1531      C1538   1.552       .  S
C1533      C1536   1.367       .  D
C1533      C1624   1.461       .  S
C1534      C1537   1.376       .  D
C1534      C1608   1.472       .  S
C1535      C1538   1.372       .  D
C1535      C1643   1.467       .  S
C1536      C1659   1.474       .  S
C1537      C1688   1.489       .  S
C1538      C1672   1.481       .  S
C1539      H1540   1.111       .  S
C1539      C1545   1.540       .  S
C1539      C1543   1.539       .  S
C1541      H1542   1.108       .  S
C1541      C1546   1.539       .  S
C1541      C1548   1.539       .  S
C1543      C1546   1.378       .  D
C1543      C1656   1.479       .  S
C1544      C1547   1.378       .  D
C1544      C1691   1.487   1_565  S
C1545      C1548   1.376       .  D
C1545      C1675   1.496   1_565  S
C1546      C1752   1.493       .  S
C1547      C1784   1.490   1_565  S
C1548      C1768   1.478   1_565  S
O1549     Ni1555   1.921       .  S
O1549      C1570   1.267       .  A
O1550     Ni1573   1.926   1_554  S
O1550      C1559   1.263       .  A
C1552      O1569   1.278       .  A
C1552      C1640   1.460       .  S
O1553     Ni1572   1.896       .  S
O1553      C1559   1.260       .  A
O1554     Ni1572   1.903   1_556  S
O1554      C1556   1.265       .  A
Ni1555     O1560   1.904       .  S
C1556      O1566   1.266       .  A
C1556      C1816   1.462       .  S
O1557      C1563   1.274       .  A
O1558      C1563   1.277       .  A
C1559      C1627   1.464       .  S
O1560      C1562   1.265   1_556  A
O1561     Ni1572   1.900       .  S
C1562      C1611   1.465       .  S
C1563      C1832   1.459       .  S
H1564      O1565   0.966       .  S
O1565     Ni1573   1.924   1_554  S
O1565     Ni1572   1.905       .  S
Ni1567     O1571   1.914       .  S
Ni1567     O1569   1.921   1_556  S
C1570      C1803   1.465       .  S
O1575     Ni1581   1.909       .  S
O1575      C1596   1.263       .  A
O1576     Ni1599   1.909       .  S
O1577     Ni1581   1.901       .  S
O1577     Ni1593   1.920       .  S
O1577      H1600   0.965       .  S
C1578      O1595   1.280       .  A
C1578      O1587   1.278   1_565  A
C1578      C1928   1.460       .  S
O1579     Ni1598   1.903       .  S
O1579      C1585   1.262       .  A
O1580     Ni1598   1.898       .  S
O1580      C1582   1.265       .  A
Ni1581     O1584   1.913       .  S
Ni1581     O1586   1.901       .  S
C1582      C1704   1.468       .  S
O1583     Ni1599   1.923       .  S
O1583      C1589   1.279       .  A
C1585      C1896   1.455       .  S
O1586      C1588   1.266       .  A
C1588      O1594   1.270       .  A
C1588      C1915   1.473       .  S
C1589      C1739   1.465       .  S
Ni1593     O1597   1.912       .  S
C1596      O1597   1.264       .  A
C1596      C1720   1.458       .  S
C1601      C1606   1.381       .  A
C1601      C1602   1.403       .  A
C1601      O1607   1.320       .  A
C1602      C1603   1.404       .  A
C1602      H1613   1.082       .  S
C1603      C1612   1.361       .  A
C1603      C1604   1.381       .  A
C1604      C1605   1.398       .  A
C1604      O1610   1.316       .  A
C1605      C1606   1.398       .  A
C1605      H1614   1.083       .  S
C1606      C1609   1.353       .  A
O1607      C1608   1.330       .  A
C1608      C1609   1.388       .  A
C1609      H1615   1.082       .  S
O1610      C1611   1.328       .  A
C1611      C1612   1.392       .  A
C1612      H1616   1.083       .  S
C1617      C1622   1.380       .  A
C1617      C1618   1.407       .  A
C1617      O1623   1.318       .  A
C1618      C1619   1.405       .  A
C1618      H1629   1.082       .  S
C1619      C1628   1.369       .  A
C1619      C1620   1.381       .  A
C1620      C1621   1.396       .  A
C1620      O1626   1.310       .  A
C1621      C1622   1.393       .  A
C1621      H1630   1.082       .  S
C1622      C1625   1.354       .  A
O1623      C1624   1.331       .  A
C1624      C1625   1.383       .  A
C1625      H1631   1.083       .  S
O1626      C1627   1.327       .  A
C1627      C1628   1.394       .  A
C1628      H1632   1.082       .  S
C1633      C1638   1.381       .  A
C1633      C1634   1.403       .  A
C1633      O1639   1.321       .  A
C1634      C1635   1.404       .  A
C1634      H1645   1.082       .  S
C1635      C1644   1.358       .  A
C1635      C1636   1.382       .  A
C1636      C1637   1.392       .  A
C1636      O1642   1.312       .  A
C1637      C1638   1.393       .  A
C1637      H1646   1.082       .  S
C1638      C1641   1.346       .  A
O1639      C1640   1.331       .  A
C1640      C1641   1.387       .  A
O1642      C1643   1.324       .  A
C1643      C1644   1.392       .  A
C1644      H1648   1.083       .  S
C1649      C1654   1.380       .  A
C1649      C1650   1.406       .  A
C1649      O1655   1.317       .  A
C1650      C1651   1.404       .  A
C1650      H1661   1.082       .  S
C1651      C1660   1.367       .  A
C1651      C1652   1.380       .  A
C1652      C1653   1.399       .  A
C1652      O1658   1.312       .  A
C1653      C1654   1.397       .  A
C1653      H1662   1.082       .  S
C1654      C1657   1.360       .  A
O1655      C1656   1.333       .  A
C1656      C1657   1.387       .  A
C1657      H1663   1.083       .  S
O1658      C1659   1.328       .  A
C1659      C1660   1.392       .  A
C1660      H1664   1.083       .  S
C1665      C1670   1.379       .  A
C1665      C1666   1.405       .  A
C1665      O1671   1.314       .  A
C1666      C1667   1.402       .  A
C1666      H1677   1.082       .  S
C1667      C1676   1.367       .  A
C1667      C1668   1.379       .  A
C1668      C1669   1.401       .  A
C1669      C1670   1.398       .  A
C1670      C1673   1.363       .  A
O1671      C1672   1.332       .  A
C1672      C1673   1.389       .  A
C1673      H1679   1.082       .  S
O1674      C1675   1.335       .  A
C1676      H1680   1.082       .  S
C1681      C1686   1.379       .  A
C1681      C1682   1.406       .  A
C1681      O1687   1.319       .  A
C1682      C1683   1.405       .  A
C1682      H1693   1.082       .  S
C1683      C1692   1.367       .  A
C1683      C1684   1.378       .  A
C1684      C1685   1.406       .  A
C1685      C1686   1.404       .  A
C1686      C1689   1.365       .  A
O1687      C1688   1.332       .  A
C1688      C1689   1.394       .  A
C1689      H1695   1.082       .  S
O1690      C1691   1.332       .  A
C1692      H1696   1.082       .  S
C1697      C1702   1.380       .  A
C1697      C1698   1.406       .  A
C1697      O1703   1.321       .  A
C1698      C1699   1.405       .  A
C1698      H1709   1.082       .  S
C1699      C1708   1.366       .  A
C1699      C1700   1.379       .  A
C1700      C1701   1.398       .  A
C1700      O1706   1.311       .  A
C1701      C1702   1.397       .  A
C1701      H1710   1.083       .  S
C1702      C1705   1.356       .  A
O1703      C1704   1.332       .  A
C1704      C1705   1.389       .  A
C1705      H1711   1.083       .  S
O1706      C1707   1.326       .  A
C1707      C1708   1.393       .  A
C1708      H1712   1.082       .  S
C1713      C1718   1.381       .  A
C1713      C1714   1.393       .  A
C1713      O1719   1.312       .  A
C1714      C1715   1.393       .  A
C1714      H1725   1.083       .  S
C1715      C1724   1.347       .  A
C1715      C1716   1.379       .  A
C1716      C1717   1.407       .  A
C1716      O1722   1.323       .  A
C1717      C1718   1.408       .  A
C1717      H1726   1.082       .  S
C1718      C1721   1.365       .  A
O1719      C1720   1.325       .  A
C1720      C1721   1.394       .  A
C1721      H1727   1.083       .  S
O1722      C1723   1.334       .  A
C1723      C1724   1.386       .  A
C1724      H1728   1.078       .  S
C1729      C1734   1.380       .  A
C1729      C1730   1.406       .  A
C1729      O1735   1.318       .  A
C1730      C1731   1.405       .  A
C1730      H1741   1.082       .  S
C1731      C1740   1.365       .  A
C1731      C1732   1.381       .  A
C1732      C1733   1.398       .  A
C1732      O1738   1.313       .  A
C1733      C1734   1.395       .  A
C1733      H1742   1.082       .  S
C1734      C1737   1.355       .  A
O1735      C1736   1.332       .  A
C1736      C1737   1.386       .  A
C1737      H1743   1.082       .  S
O1738      C1739   1.328       .  A
C1739      C1740   1.394       .  A
C1740      H1744   1.082       .  S
C1745      C1750   1.378       .  A
C1745      C1746   1.401       .  A
C1745      O1751   1.311       .  A
C1746      C1747   1.398       .  A
C1746      H1757   1.083       .  S
C1747      C1756   1.361       .  A
C1747      C1748   1.378       .  A
C1748      C1749   1.409       .  A
C1748      O1754   1.318       .  A
C1749      C1750   1.406       .  A
C1749      H1758   1.082       .  S
C1750      C1753   1.371       .  A
O1751      C1752   1.329       .  A
C1752      C1753   1.396       .  A
C1753      H1759   1.082       .  S
O1754      C1755   1.334       .  A
C1755      C1756   1.389       .  A
C1756      H1760   1.082       .  S
C1761      C1766   1.377       .  A
C1761      C1762   1.413       .  A
C1761      O1767   1.321       .  A
C1762      C1763   1.409       .  A
C1762      H1773   1.082       .  S
C1763      C1772   1.375       .  A
C1763      C1764   1.377       .  A
C1764      C1765   1.405       .  A
C1764      O1770   1.315       .  A
C1765      C1766   1.402       .  A
C1768      C1769   1.392   1_545  A
C1769      H1775   1.083       .  S
O1770      C1771   1.330       .  A
C1771      C1772   1.397       .  A
C1772      H1776   1.082       .  S
C1777      C1782   1.379       .  A
C1777      C1778   1.408       .  A
C1777      O1783   1.320       .  A
C1778      C1779   1.406       .  A
C1778      H1789   1.082       .  S
C1779      C1788   1.370       .  A
C1779      C1780   1.379       .  A
C1780      O1786   1.315       .  A
C1781      H1790   1.082       .  S
C1784      C1785   1.392       .  A
C1785      H1791   1.082   1_545  S
O1786      C1787   1.329       .  A
C1787      C1788   1.393       .  A
C1788      H1792   1.082       .  S
C1793      C1798   1.380       .  A
C1793      C1794   1.396       .  A
C1793      O1799   1.309       .  A
C1794      C1795   1.394       .  A
C1794      H1805   1.083       .  S
C1795      C1804   1.355       .  A
C1795      C1796   1.381       .  A
C1796      C1797   1.409       .  A
C1796      O1802   1.321       .  A
C1797      C1798   1.407       .  A
C1797      H1806   1.082       .  S
C1798      C1801   1.370       .  A
O1799      C1800   1.327       .  A
C1800      C1801   1.394       .  A
C1801      H1807   1.082       .  S
O1802      C1803   1.333       .  A
C1803      C1804   1.387       .  A
C1804      H1808   1.083       .  S
C1809      C1814   1.381       .  A
C1809      C1810   1.401       .  A
C1809      O1815   1.315       .  A
C1810      C1811   1.399       .  A
C1810      H1821   1.082       .  S
C1811      C1820   1.360       .  A
C1811      C1812   1.379       .  A
C1812      C1813   1.401       .  A
C1812      O1818   1.313       .  A
C1813      C1814   1.399       .  A
C1813      H1822   1.083       .  S
C1814      C1817   1.360       .  A
O1815      C1816   1.329       .  A
C1816      C1817   1.391       .  A
C1817      H1823   1.083       .  S
O1818      C1819   1.330       .  A
C1819      C1820   1.390       .  A
C1820      H1824   1.082       .  S
C1825      C1830   1.381       .  A
C1825      C1826   1.399       .  A
C1825      O1831   1.313       .  A
C1826      C1827   1.397       .  A
C1826      H1837   1.082       .  S
C1827      C1836   1.358       .  A
C1827      C1828   1.381       .  A
C1828      C1829   1.401       .  A
C1828      O1834   1.314       .  A
C1829      C1830   1.399       .  A
C1829      H1838   1.082       .  S
C1830      C1833   1.360       .  A
O1831      C1832   1.328       .  A
C1832      C1833   1.390       .  A
C1833      H1839   1.083       .  S
O1834      C1835   1.328       .  A
C1835      C1836   1.386       .  A
C1836      H1840   1.082       .  S
C1841      C1846   1.378       .  A
C1841      C1842   1.412       .  A
C1841      O1847   1.320       .  A
C1842      C1843   1.409       .  A
C1842      H1853   1.082       .  S
C1843      C1852   1.374       .  A
C1843      C1844   1.378       .  A
C1844      C1845   1.399       .  A
C1844      O1850   1.310       .  A
C1845      C1846   1.396       .  A
C1845      H1854   1.082       .  S
C1846      C1849   1.360       .  A
O1847      C1848   1.337       .  A
C1848      C1849   1.388       .  A
C1849      H1855   1.082       .  S
O1850      C1851   1.326       .  A
C1851      C1852   1.397       .  A
C1852      H1856   1.082       .  S
C1857      C1862   1.378       .  A
C1857      C1858   1.407       .  A
C1857      O1863   1.317       .  A
C1858      C1859   1.404       .  A
C1858      H1869   1.082       .  S
C1859      C1868   1.367       .  A
C1859      C1860   1.379       .  A
C1860      C1861   1.406       .  A
C1860      O1866   1.317       .  A
C1861      C1862   1.404       .  A
C1861      H1870   1.082       .  S
C1862      C1865   1.368       .  A
O1863      C1864   1.334       .  A
C1864      C1865   1.392       .  A
C1865      H1871   1.082       .  S
O1866      C1867   1.333       .  A
C1867      C1868   1.393       .  A
C1873      C1878   1.380       .  A
C1873      C1874   1.400       .  A
C1873      O1879   1.312       .  A
C1874      C1875   1.398       .  A
C1874      H1885   1.082       .  S
C1875      C1884   1.360       .  A
C1875      C1876   1.380       .  A
C1876      C1877   1.406       .  A
C1876      O1882   1.317       .  A
C1877      C1878   1.403       .  A
C1877      H1886   1.082       .  S
C1878      C1881   1.366       .  A
O1879      C1880   1.329       .  A
C1880      C1881   1.391       .  A
C1881      H1887   1.082       .  S
O1882      C1883   1.332       .  A
C1883      C1884   1.387       .  A
C1884      H1888   1.082       .  S
C1889      C1894   1.381       .  A
C1889      C1890   1.397       .  A
C1889      O1895   1.311       .  A
C1890      C1891   1.395       .  A
C1890      H1901   1.083       .  S
C1891      C1900   1.352       .  A
C1891      C1892   1.381       .  A
C1892      C1893   1.401       .  A
C1892      O1898   1.316       .  A
C1893      C1894   1.400       .  A
C1893      H1902   1.082       .  S
C1894      C1897   1.361       .  A
O1895      C1896   1.327       .  A
C1896      C1897   1.390       .  A
O1898      C1899   1.328       .  A
C1899      C1900   1.385       .  A
C1900      H1904   1.083       .  S
C1905      C1910   1.380       .  A
C1905      C1906   1.400       .  A
C1905      O1911   1.315       .  A
C1906      C1907   1.399       .  A
C1906      H1917   1.083       .  S
C1907      C1916   1.357       .  A
C1907      C1908   1.380       .  A
C1908      C1909   1.408       .  A
C1908      O1914   1.323       .  A
C1909      C1910   1.407       .  A
C1909      H1918   1.082       .  S
C1910      C1913   1.367       .  A
O1911      C1912   1.329       .  A
C1912      C1913   1.395       .  A
C1913      H1919   1.082       .  S
O1914      C1915   1.333       .  A
C1915      C1916   1.391       .  A
C1916      H1920   1.083       .  S
C1921      C1926   1.381       .  A
C1921      C1922   1.401       .  A
C1921      O1927   1.314       .  A
C1922      C1923   1.399       .  A
C1922      H1933   1.082       .  S
C1923      C1932   1.358       .  A
C1923      C1924   1.382       .  A
C1924      C1925   1.399       .  A
C1924      O1930   1.314       .  A
C1925      C1926   1.398       .  A
C1925      H1934   1.082       .  S
C1926      C1929   1.358       .  A
O1927      C1928   1.330       .  A
C1928      C1929   1.389       .  A
C1929      H1935   1.083       .  S
O1930      C1931   1.327       .  A
C1931      C1932   1.388       .  A
C1932      H1936   1.083       .  S
C1937      C1942   1.378       .  A
C1937      C1938   1.410       .  A
C1937      O1943   1.321       .  A
C1938      C1939   1.408       .  A
C1938      H1949   1.082       .  S
C1939      C1948   1.371       .  A
C1939      C1940   1.378       .  A
C1940      C1941   1.409       .  A
C1940      O1946   1.321       .  A
C1941      C1942   1.407       .  A
C1941      H1950   1.082       .  S
C1942      C1945   1.371       .  A
O1943      C1944   1.335       .  A
C1944      C1945   1.393       .  A
C1945      H1951   1.082       .  S
O1946      C1947   1.334       .  A
C1947      C1948   1.395       .  A
C1948      H1952   1.083       .  S
C1953      C1958   1.380       .  A
C1953      C1954   1.400       .  A
C1953      O1959   1.311       .  A
C1954      C1955   1.397       .  A
C1954      H1965   1.082       .  S
C1955      C1964   1.359       .  A
C1955      C1956   1.380       .  A
C1956      C1957   1.404       .  A
C1956      O1962   1.315       .  A
C1957      C1958   1.402       .  A
C1957      H1966   1.082       .  S
C1958      C1961   1.365       .  A
O1959      C1960   1.329       .  A
C1960      C1961   1.390       .  A
C1961      H1967   1.082       .  S
O1962      C1963   1.330       .  A
C1963      C1964   1.388       .  A
C1964      H1968   1.082       .  S
C1969      C1974   1.380       .  A
C1969      C1970   1.408       .  A
C1969      O1975   1.318       .  A
C1970      C1971   1.405       .  A
C1970      H1981   1.082       .  S
C1971      C1980   1.370       .  A
C1971      C1972   1.379       .  A
C1972      C1973   1.402       .  A
C1972      O1978   1.314       .  A
C1973      C1974   1.399       .  A
C1973      H1982   1.082       .  S
C1974      C1977   1.363       .  A
O1975      C1976   1.333       .  A
C1976      C1977   1.388       .  A
O1978      C1979   1.331       .  A
C1979      C1980   1.392       .  A
C1980      H1984   1.082       .  S
