geometry optimzed in LAMMPS
_audit_creation_date              2020-12-01 
_audit_creation_method            'lammps2cif' 
_symmetry_space_group_name_H-M    'P1' 
_symmetry_Int_Tables_number       1 
_symmetry_cell_setting            triclinic 
loop_ 
_symmetry_equiv_pos_as_xyz 
  x,y,z 
_cell_length_a                    32.32252126 
_cell_length_b                    32.07127801833673 
_cell_length_c                    33.54975848890903 
_cell_angle_alpha                 91.98036101642076 
_cell_angle_beta                  96.72284921260919 
_cell_angle_gamma                 88.26154801143583 
loop_ 
_atom_site_label 
_atom_site_type_symbol 
_atom_site_fract_x 
_atom_site_fract_y 
_atom_site_fract_z 
_atom_site_charge 
N1          N  0.61553205  0.48667455  0.28462804    -0.03200
C2          C  0.61383038  0.47124315  0.24591548    -0.00700
C3          C  0.62703557  0.42982309  0.24600078    -0.23500
C4          C  0.63840226  0.41971896  0.28522122    -0.23700
C5          C  0.63069668  0.45470936  0.30874718    -0.00800
H6          H  0.62948057  0.40933485  0.22001525     0.13000
H7          H  0.65250914  0.39030323  0.29516087     0.13100
N8          N  0.45250450  0.58135994  0.59251079    -0.03200
C9          C  0.46310463  0.59882084  0.62989462    -0.00700
C10         C  0.46356690  0.64170414  0.62813344    -0.23500
C11         C  0.45271144  0.65140102  0.58876543    -0.23700
C12         C  0.44591414  0.61417306  0.56729307    -0.00800
H13         H  0.47023109  0.66366604  0.65312225     0.13000
H14         H  0.44872708  0.68250789  0.57713308     0.13100
N15         N  0.88059913  0.61909638  0.95088355    -0.03200
C16         C  0.84524388  0.60546284  0.96466224    -0.00700
C17         C  0.85048696  0.60468210  0.00606320    -0.23500
C18         C  0.88931973  0.61913543  0.01861317    -0.23700
C19         C  0.90721666  0.62833273  0.98463600    -0.00800
H20         H  0.82743497  0.59660984  0.02524646     0.13000
H21         H  0.90247073  0.62441368  0.04949647     0.13100
N22         N  0.51756527  0.89066510  0.82657078    -0.03200
C23         C  0.51732585  0.85153110  0.80958548    -0.00700
C24         C  0.52639199  0.85166199  0.77057217    -0.23500
C25         C  0.53326773  0.89225297  0.76291862    -0.23700
C26         C  0.52969827  0.91546563  0.79810138    -0.00800
H27         H  0.53142736  0.82473610  0.75121663     0.13000
H28         H  0.54632139  0.90260152  0.73677796     0.13100
N29         N  0.18847599  0.43784962  0.92168773    -0.03200
C30         C  0.22857198  0.43173630  0.91203011    -0.00700
C31         C  0.22816815  0.41113120  0.87516616    -0.23500
C32         C  0.18776749  0.40347235  0.86161271    -0.23700
C33         C  0.16360048  0.42143356  0.88926726    -0.00800
H34         H  0.25463058  0.40342551  0.85904867     0.13000
H35         H  0.17696566  0.38764247  0.83346739     0.13100
N36         N  0.49284560  0.21151760  0.03621967    -0.03200
C37         C  0.48161646  0.25205696  0.04339232    -0.00700
C38         C  0.44552865  0.25478370  0.06159977    -0.23500
C39         C  0.43442671  0.21479428  0.06691146    -0.23700
C40         C  0.46347667  0.18855286  0.05091638    -0.00800
H41         H  0.42922378  0.28296411  0.07042561     0.13000
H42         H  0.40869801  0.20588806  0.08243066     0.13100
Zr43       Zr  0.56754104  0.59066130  0.88646948     2.17500
O44         O  0.61805065  0.60207129  0.83977522    -0.51100
O45         O  0.55496073  0.66515366  0.87580026    -0.74300
O46         O  0.53476238  0.57819159  0.81658217    -0.81100
O47         O  0.65915323  0.57885824  0.96887505    -0.82800
O48         O  0.46986196  0.55340445  0.81766108    -0.78500
O49         O  0.64373711  0.59401234  0.90299949    -0.90100
O50         O  0.50579033  0.68920028  0.91452037    -0.76100
O51         O  0.49595436  0.60474438  0.89376471    -0.85500
O52         O  0.56560435  0.62252117  0.95186494    -0.85200
O53         O  0.53456667  0.52392784  0.87808791    -0.72000
O54         O  0.59800992  0.54021079  0.93359173    -0.84100
Zr55       Zr  0.49040521  0.51837014  0.99935436     2.26400
Zr56       Zr  0.46273616  0.53871226  0.88741034     2.06300
Zr57       Zr  0.59456445  0.57174980  0.99881644     2.10000
Zr58       Zr  0.49380376  0.63480893  0.95932042     1.78800
O59         O  0.65864975  0.55322284  0.04080098    -0.92900
O60         O  0.42543827  0.66155400  0.93158719    -0.40700
O61         O  0.52304978  0.58524628  0.00755668    -0.77400
O62         O  0.45930596  0.56952056  0.95317976    -0.96100
O63         O  0.49252536  0.48778278  0.93373186    -0.89400
O64         O  0.56223636  0.50533550  0.99169723    -0.92200
C65         C  0.53012964  0.69375857  0.88765227     1.01500
C66         C  0.66979602  0.58751910  0.93440151     1.14500
C67         C  0.49931622  0.56608638  0.79873584     1.05300
O68         O  0.40201819  0.58230826  0.86519001    -0.94400
O69         O  0.40164936  0.51076801  0.91286930    -0.90100
O70         O  0.41753620  0.49865665  0.97956124    -0.83300
C71         C  0.39224620  0.49878657  0.94682586     1.11900
O72         O  0.61782057  0.45772678  0.88266898    -0.96300
Zr73       Zr  0.56406436  0.47485322  0.92622722     1.88900
O74         O  0.49936113  0.44288644  0.00692354    -0.73000
O75         O  0.44294655  0.47878201  0.84348769    -0.52200
O76         O  0.53437010  0.42865247  0.87191395    -0.96900
O77         O  0.62612868  0.43756983  0.95667650    -0.54100
O78         O  0.54095139  0.41712184  0.96130266    -0.73500
C79         C  0.51821877  0.41269346  0.98952046     0.98800
O80         O  0.44773752  0.53275697  0.05380598    -0.62300
O81         O  0.60438037  0.64061228  0.03085194    -0.57100
O82         O  0.52540737  0.51906612  0.06855362    -0.93800
O83         O  0.58867976  0.54741911  0.06621990    -0.92200
O84         O  0.52505583  0.69062675  0.00272818    -0.92600
O85         O  0.45101054  0.65642069  0.01187296    -0.91400
C86         C  0.56157752  0.53020580  0.08510859     1.17700
H87         H  0.58101529  0.64793820  0.95458817     0.33600
H88         H  0.43060113  0.57509074  0.95752890     0.44500
H89         H  0.57499700  0.48648307  0.01172155     0.38000
H90         H  0.53693522  0.51139194  0.85184420     0.34500
H91         H  0.42589830  0.69191841  0.93801729     0.26300
H92         H  0.44685236  0.45452023  0.86113417     0.32200
H93         H  0.55359398  0.40399343  0.87257288     0.38100
H94         H  0.50836752  0.71601865  0.99472647     0.32600
H95         H  0.60473745  0.63584409  0.05989252     0.31500
H96         H  0.66249341  0.52277810  0.03601036     0.33100
H97         H  0.62185439  0.40791737  0.94841629     0.32100
H98         H  0.43366728  0.63206026  0.01490553     0.36100
H99         H  0.42346090  0.54960015  0.04200552     0.28800
H100        H  0.60363557  0.62041996  0.81910922     0.33100
H101        H  0.63511412  0.48281850  0.88412561     0.35900
H102        H  0.63350377  0.64724065  0.02763880     0.28500
H103        H  0.43627879  0.50553644  0.05934172     0.41400
H104        H  0.38296204  0.56334477  0.84852904     0.31500
H105        H  0.42574551  0.65946216  0.90210968     0.39100
H106        H  0.62406277  0.43855620  0.98589371     0.30900
H107        H  0.41237074  0.48196106  0.83688588     0.31000
H108        H  0.62181918  0.57468052  0.82598711     0.31300
N109        N  0.49649077  0.38618470  0.51915204    -0.03200
C110        C  0.47795822  0.34966328  0.50529152    -0.00700
C111        C  0.43648280  0.35077103  0.51130244    -0.23500
C112        C  0.42850758  0.38838965  0.52917370    -0.23700
C113        C  0.46511146  0.41032169  0.53329803    -0.00800
H114        H  0.41475066  0.32567497  0.50517203     0.13000
H115        H  0.39875867  0.39859846  0.53840880     0.13100
N116        N  0.57026665  0.67371847  0.37531921    -0.03200
C117        C  0.59144598  0.70719691  0.39278022    -0.00700
C118        C  0.63389115  0.69961285  0.39515345    -0.23500
C119        C  0.63960819  0.66032444  0.37948468    -0.23700
C120        C  0.60055073  0.64476075  0.36712217    -0.00800
H121        H  0.65826025  0.72117899  0.40547162     0.13000
H122        H  0.66939495  0.64531575  0.37561682     0.13100
N123        N  0.63784503  0.04731616  0.78496137    -0.03200
C124        C  0.64853388  0.04976124  0.74694934    -0.00700
C125        C  0.67731696  0.08056548  0.74614187    -0.23500
C126        C  0.68407065  0.09781252  0.78446048    -0.23700
C127        C  0.65946321  0.07700211  0.80794800    -0.00800
H128        H  0.68956660  0.09156638  0.71985141     0.13000
H129        H  0.70282240  0.12462702  0.79363912     0.13100
N130        N  0.87082007  0.98025625  0.45673638    -0.03200
C131        C  0.83748694  0.00337166  0.46699830    -0.00700
C132        C  0.83983310  0.04412074  0.45554023    -0.23500
C133        C  0.87583820  0.04655251  0.43795321    -0.23700
C134        C  0.89449895  0.00721021  0.43886068    -0.00800
H135        H  0.81614897  0.06857123  0.45677339     0.13000
H136        H  0.88491656  0.07293568  0.42198930     0.13100
N137        N  0.45885033  0.01935956  0.09784795    -0.03200
C138        C  0.47411700  0.00657980  0.13519326    -0.00700
C139        C  0.48111645  0.96394750  0.13418293    -0.23500
C140        C  0.46868736  0.95001685  0.09553801    -0.23700
C141        C  0.45432605  0.98443950  0.07356001    -0.00800
H142        H  0.49096076  0.94462432  0.15955692     0.13000
H143        H  0.46645420  0.91763894  0.08549693     0.13100
N144        N  0.17272804  0.12301563  0.46135387    -0.03200
C145        C  0.21540416  0.12006826  0.46885747    -0.00700
C146        C  0.22724931  0.11098329  0.50856262    -0.23500
C147        C  0.19168637  0.10703382  0.52615848    -0.23700
C148        C  0.15862248  0.11343307  0.49684708    -0.00800
H149        H  0.25869858  0.10546443  0.52271797     0.13000
H150        H  0.19004116  0.09894495  0.55698348     0.13100
Zr151      Zr  0.47507207  0.08950078  0.40039017     2.17500
O152        O  0.45771360  0.15196506  0.36169118    -0.51100
O153        O  0.39915403  0.09577045  0.40421071    -0.74300
O154        O  0.47005945  0.07590564  0.32593832    -0.81100
O155        O  0.51696894  0.15200047  0.49563788    -0.82800
O156        O  0.48768915  0.00754274  0.31479124    -0.78500
O157        O  0.48782332  0.16039257  0.43153951    -0.90100
O158        O  0.37879786  0.04284855  0.44009430    -0.76100
O159        O  0.45151353  0.01918739  0.39923983    -0.85500
O160        O  0.46315102  0.07438995  0.46746773    -0.85200
O161        O  0.53194420  0.04612478  0.37955665    -0.72000
O162        O  0.54054843  0.09704082  0.44251160    -0.84100
Zr163      Zr  0.56364805  0.96792970  0.48664077     2.26400
Zr164      Zr  0.50794077  0.97588162  0.37933865     2.06300
Zr165      Zr  0.52842160  0.07930422  0.50887799     2.10000
Zr166      Zr  0.44115091  0.00438262  0.46657790     1.78800
O167        O  0.57971332  0.12484826  0.54544003    -0.92900
O168        O  0.39355168  0.95136786  0.43660480    -0.40700
O169        O  0.50645159  0.00894216  0.50900578    -0.77400
O170        O  0.49672337  0.96019897  0.44649461    -0.96100
O171        O  0.57405100  0.98343779  0.41937058    -0.89400
O172        O  0.58511095  0.03818896  0.48815866    -0.92200
C173        C  0.37125410  0.07601155  0.41999188     1.01500
C174        C  0.50203053  0.17500469  0.46681850     1.14500
C175        C  0.47664114  0.04410425  0.30237786     1.05300
O176        O  0.44514277  0.93826397  0.35495332    -0.94400
O177        O  0.52899088  0.90316187  0.39019185    -0.90100
O178        O  0.56284588  0.89886701  0.45306665    -0.83300
C179        C  0.54827137  0.88224210  0.41895163     1.11900
O180        O  0.60378506  0.10658864  0.37258420    -0.96300
Zr181      Zr  0.59603066  0.05378860  0.42162820     1.88900
O182        O  0.64016413  0.96445347  0.48735835    -0.73000
O183        O  0.54703804  0.94386791  0.32786339    -0.52200
O184        O  0.63580430  0.02932195  0.36766984    -0.96900
O185        O  0.63744757  0.10912717  0.45661157    -0.54100
O186        O  0.65812365  0.01652118  0.44886036    -0.73500
C187        C  0.66709175  0.98566627  0.47174600     0.98800
O188        O  0.56387647  0.90421357  0.52431629    -0.62300
O189        O  0.47741859  0.09389785  0.55592887    -0.57100
O190        O  0.58112354  0.98321540  0.55986635    -0.93800
O191        O  0.56067730  0.05048306  0.57104705    -0.92200
O192        O  0.41316233  0.03499073  0.52559421    -0.92600
O193        O  0.42384933  0.95131307  0.51165555    -0.91400
C194        C  0.57733569  0.01570753  0.58323814     1.17700
H195        H  0.44265046  0.09373833  0.47705634     0.33600
H196        H  0.48783410  0.93195273  0.44753238     0.44500
H197        H  0.60983167  0.04214653  0.50682253     0.38000
H198        H  0.53914525  0.05333010  0.35409531     0.34500
H199        H  0.37845310  0.96420819  0.41249660     0.26300
H200        H  0.52571403  0.93435940  0.30609817     0.32200
H201        H  0.61795066  0.00847384  0.35219827     0.38100
H202        H  0.38295885  0.02951409  0.52123113     0.32600
H203        H  0.49388170  0.10385084  0.58100980     0.31500
H204        H  0.56797729  0.13321121  0.57058059     0.33100
H205        H  0.66479727  0.10639122  0.44607831     0.32100
H206        H  0.45109566  0.94161804  0.52529300     0.36100
H207        H  0.58915486  0.90496506  0.54406294     0.28800
H208        H  0.43229970  0.14537978  0.34336225     0.33100
H209        H  0.63369146  0.11336884  0.37596738     0.35900
H210        H  0.46127841  0.11881648  0.54576802     0.28500
H211        H  0.54021201  0.90795601  0.54047397     0.41400
H212        H  0.42583527  0.95943262  0.34162292     0.31500
H213        H  0.41158064  0.92928540  0.42580281     0.39100
H214        H  0.64331695  0.10043375  0.48476701     0.30900
H215        H  0.56068261  0.96716588  0.31647507     0.31000
H216        H  0.48003468  0.15414725  0.34407083     0.31300
N217        N  0.99029330  0.39677100  0.83774922    -0.03200
C218        C  0.98235445  0.35542672  0.83056122    -0.00700
C219        C  0.95595180  0.34912288  0.79592211    -0.23500
C220        C  0.94637121  0.38751065  0.78087594    -0.23700
C221        C  0.96532243  0.41688399  0.80783874    -0.00800
H222        H  0.94481206  0.31956055  0.78302148     0.13000
H223        H  0.92802901  0.39290251  0.75241971     0.13100
N224        N  0.35134373  0.93171074  0.92966915    -0.03200
C225        C  0.30987243  0.92346094  0.92298417    -0.00700
C226        C  0.30214133  0.89361526  0.89264127    -0.23500
C227        C  0.33952675  0.88365343  0.87912865    -0.23700
C228        C  0.36903748  0.90810630  0.90124927    -0.00800
H229        H  0.27203670  0.88240973  0.87989832     0.13000
H230        H  0.34418937  0.86337078  0.85347625     0.13100
N231        N  0.00230893  0.99144599  0.28103368    -0.03200
C232        C  0.01099001  0.96834848  0.24838843    -0.00700
C233        C  0.00364107  0.92675838  0.25338370    -0.23500
C234        C  0.98953664  0.92428521  0.29033218    -0.23700
C235        C  0.98827613  0.96454350  0.30640636    -0.00800
H236        H  0.00472044  0.90163731  0.23112123     0.13000
H237        H  0.97796093  0.89671678  0.30257257     0.13100
N238        N  0.06429825  0.70014134  0.03865334    -0.03200
C239        C  0.08033898  0.73936916  0.04073328    -0.00700
C240        C  0.11977887  0.73884778  0.06163601    -0.23500
C241        C  0.12886984  0.69867627  0.07260674    -0.23700
C242        C  0.09473673  0.67519461  0.05845734    -0.00800
H243        H  0.13987509  0.76518677  0.06833806     0.13000
H244        H  0.15748957  0.68771739  0.08949662     0.13100
N245        N  0.67365454  0.17110418  0.95442996    -0.03200
C246        C  0.71207477  0.18805595  0.95722731    -0.00700
C247        C  0.71300203  0.22518757  0.97909784    -0.23500
C248        C  0.67423128  0.23131854  0.99109265    -0.23700
C249        C  0.65082320  0.19711495  0.97718798    -0.00800
H250        H  0.73996525  0.24396304  0.98817761     0.13000
H251        H  0.66506103  0.25663720  0.01064239     0.13100
N252        N  0.00329684  0.08681313  0.60446982    -0.03200
C253        C  0.99003029  0.10830937  0.63646230    -0.00700
C254        C  0.98993343  0.15053519  0.63010461    -0.23500
C255        C  0.00532598  0.15527508  0.59414621    -0.23700
C256        C  0.01387247  0.11569991  0.57856771    -0.00800
H257        H  0.98491326  0.17535923  0.65183904     0.13000
H258        H  0.01442178  0.18477423  0.58377623     0.13100
Zr259      Zr  0.06528275  0.00866455  0.99988346     2.17500
O260        O  0.12808991  0.00012514  0.04706451    -0.51100
O261        O  0.05610511  0.93378152  0.00396660    -0.74300
O262        O  0.05040218  0.01138399  0.06964619    -0.81100
O263        O  0.13401339  0.01149867  0.91379849    -0.82800
O264        O  0.98715341  0.04389995  0.07114307    -0.78500
O265        O  0.13426480  0.99538661  0.97936719    -0.90100
O266        O  0.00139172  0.91295061  0.96005877    -0.76100
O267        O  0.99175425  0.00147434  0.99413139    -0.85500
O268        O  0.04538253  0.98213811  0.93344140    -0.85200
O269        O  0.03740863  0.07733457  0.01400571    -0.72000
O270        O  0.08560205  0.05970609  0.95592413    -0.84100
Zr271      Zr  0.96311155  0.09712645  0.89591802     2.26400
Zr272      Zr  0.96306140  0.07023906  0.00516662     2.06300
Zr273      Zr  0.06339635  0.03399556  0.88925869     2.10000
Zr274      Zr  0.97188165  0.97584988  0.92763620     1.78800
O275        O  0.11560984  0.06350593  0.85258722    -0.92900
O276        O  0.91577464  0.95138587  0.96279850    -0.40700
O277        O  0.98921332  0.02756968  0.88226496    -0.77400
O278        O  0.94184680  0.04429507  0.93822410    -0.96100
O279        O  0.98344043  0.12245029  0.96267725    -0.89400
O280        O  0.03682463  0.10308274  0.90191082    -0.92200
C281        C  0.03155924  0.90569776  0.98757222     1.01500
C282        C  0.15196575  0.99799735  0.94724894     1.14500
C283        C  0.01941390  0.02415033  0.08792518     1.05300
O284        O  0.90701873  0.03571845  0.03254667    -0.94400
O285        O  0.89638340  0.10459093  0.98179171    -0.90100
O286        O  0.89581290  0.11921133  0.91615543    -0.83300
C287        C  0.87847943  0.11916390  0.94861736     1.11900
O288        O  0.11785204  0.13462370  0.01933411    -0.96300
Zr289      Zr  0.05724934  0.12757753  0.96917656     1.88900
O290        O  0.97716804  0.17165543  0.89098652    -0.73000
O291        O  0.95769249  0.13018112  0.05107923    -0.52200
O292        O  0.03994358  0.17627101  0.02249783    -0.96900
O293        O  0.11824372  0.15394120  0.94279258    -0.54100
O294        O  0.03407049  0.18975039  0.93379333    -0.73500
C295        C  0.00397719  0.19817121  0.90679527     0.98800
O296        O  0.89945839  0.10707825  0.85024303    -0.62300
O297        O  0.06759320  0.96695388  0.85320222    -0.57100
O298        O  0.97350419  0.08739440  0.82501812    -0.93800
O299        O  0.03565483  0.05346963  0.82153293    -0.92200
O300        O  0.98497528  0.92943028  0.87125072    -0.92600
O301        O  0.90910107  0.95599342  0.88465711    -0.91400
C302        C  0.00224752  0.07170709  0.80522959     1.17700
H303        H  0.05951970  0.95583932  0.92841450     0.33600
H304        H  0.91193558  0.04172752  0.93395709     0.44500
H305        H  0.04503558  0.12182516  0.88257130     0.38000
H306        H  0.04691234  0.08653048  0.04119582     0.34500
H307        H  0.92980888  0.93980162  0.98799975     0.26300
H308        H  0.98558907  0.13199347  0.06664453     0.32200
H309        H  0.04757299  0.20401293  0.01404081     0.38100
H310        H  0.98081634  0.94721597  0.84749084     0.32600
H311        H  0.05361094  0.97180015  0.82583655     0.31500
H312        H  0.11935806  0.09208995  0.86429828     0.33100
H313        H  0.10824630  0.16240825  0.91515169     0.32100
H314        H  0.89136350  0.98172466  0.88273471     0.36100
H315        H  0.90623481  0.12535124  0.82884125     0.28800
H316        H  0.12223814  0.97803551  0.06538032     0.33100
H317        H  0.12242741  0.16498983  0.02278714     0.35900
H318        H  0.09743702  0.96285756  0.84965137     0.28500
H319        H  0.89380970  0.07943932  0.83705613     0.41400
H320        H  0.89298920  0.05803648  0.04756202     0.31500
H321        H  0.90118094  0.97705863  0.97156624     0.39100
H322        H  0.13618981  0.12886680  0.93904800     0.28500
H323        H  0.95550016  0.15471777  0.03376325     0.31000
H324        H  0.12991027  0.02625263  0.06367620     0.31300
N325        N  0.37193308  0.62846305  0.40282904    -0.03200
C326        C  0.33252821  0.62172896  0.38402733    -0.00700
C327        C  0.33016632  0.63167652  0.34412449    -0.23500
C328        C  0.36849051  0.64471821  0.33755570    -0.23700
C329        C  0.39403635  0.64242288  0.37354660    -0.00800
H330        H  0.30293924  0.63007978  0.32207519     0.13000
H331        H  0.37681853  0.65482349  0.30917001     0.13100
N332        N  0.68286831  0.46183226  0.48060425    -0.03200
C333        C  0.72054632  0.47416382  0.49962420    -0.00700
C334        C  0.72150970  0.47050371  0.54064615    -0.23500
C335        C  0.68396588  0.45515340  0.54747320    -0.23700
C336        C  0.66074177  0.44964072  0.51048317    -0.00800
H337        H  0.74757231  0.47672103  0.56318117     0.13000
H338        H  0.67483263  0.44786936  0.57641791     0.13100
N339        N  0.99014315  0.88413336  0.54348080    -0.03200
C340        C  0.01224406  0.84781434  0.53830409    -0.00700
C341        C  0.05235992  0.85088317  0.55710511    -0.23500
C342        C  0.05585529  0.89039492  0.57358159    -0.23700
C343        C  0.01738494  0.91046689  0.56563406    -0.00800
H344        H  0.07704601  0.82728616  0.55735044     0.13000
H345        H  0.08432605  0.90356926  0.58817902     0.13100
N346        N  0.05918327  0.18760631  0.33181507    -0.03200
C347        C  0.05311288  0.22861052  0.32214638    -0.00700
C348        C  0.02992203  0.23202755  0.28507387    -0.23500
C349        C  0.02106996  0.19236271  0.27111817    -0.23700
C350        C  0.03941145  0.16562249  0.29981919    -0.00800
H351        H  0.01929449  0.26058352  0.27039310     0.13000
H352        H  0.00223531  0.18383926  0.24337173     0.13100
N353        N  0.94307546  0.59041099  0.76665479    -0.03200
C354        C  0.94432322  0.60537224  0.72927291    -0.00700
C355        C  0.92991443  0.64626348  0.72809763    -0.23500
C356        C  0.91895429  0.65680401  0.76558018    -0.23700
C357        C  0.92740992  0.62223425  0.78913860    -0.00800
H358        H  0.92655370  0.66595600  0.70230194     0.13000
H359        H  0.90454864  0.68615193  0.77406923     0.13100
N360        N  0.11028877  0.50018841  0.09718039    -0.03200
C361        C  0.09965459  0.48268172  0.13126806    -0.00700
C362        C  0.10170570  0.43976060  0.12754364    -0.23500
C363        C  0.11370622  0.42994056  0.09053647    -0.23700
C364        C  0.11901460  0.46705503  0.07210756    -0.00800
H365        H  0.09574751  0.41783695  0.14988584     0.13000
H366        H  0.11935139  0.39873045  0.07867897     0.13100
Zr367      Zr  0.96628151  0.57650977  0.47028961     2.17500
O368        O  0.90494559  0.62303660  0.46229321    -0.51100
O369        O  0.96573431  0.57155369  0.54312343    -0.74300
O370        O  0.90128209  0.53901497  0.46812693    -0.81100
O371        O  0.03626102  0.66902030  0.46525343    -0.82800
O372        O  0.90939353  0.47338604  0.44243367    -0.78500
O373        O  0.97285389  0.65251251  0.48190921    -0.90100
O374        O  0.02450874  0.53657157  0.56854570    -0.76100
O375        O  0.99010276  0.50761644  0.48764756    -0.85500
O376        O  0.03794797  0.58184914  0.49589607    -0.85200
O377        O  0.95617801  0.53463530  0.40877671    -0.72000
O378        O  0.00014512  0.60264722  0.41650326    -0.84100
Zr379      Zr  0.08867749  0.49818842  0.39724467     2.26400
Zr380      Zr  0.98204094  0.46604221  0.42661909     2.06300
Zr381      Zr  0.07196368  0.60699821  0.44217723     2.10000
Zr382      Zr  0.06173764  0.51301764  0.51234890     1.78800
O383        O  0.07661294  0.66163237  0.39444511    -0.92900
O384        O  0.04503780  0.44883680  0.54319422    -0.40700
O385        O  0.09758047  0.53861254  0.45950224    -0.77400
O386        O  0.05477153  0.47107101  0.45147844    -0.96100
O387        O  0.01651191  0.49155860  0.37290982    -0.89400
O388        O  0.06336008  0.56662007  0.38077228    -0.92200
C389        C  0.98988888  0.55613401  0.57257510     1.01500
C390        C  0.00114054  0.67903569  0.47776983     1.14500
C391        C  0.88708271  0.50278145  0.45721360     1.05300
O392        O  0.97494608  0.41049606  0.47291054    -0.94400
O393        O  0.01887075  0.40367719  0.40376606    -0.90100
O394        O  0.08073124  0.42270976  0.38489317    -0.83300
C395        C  0.05357294  0.39522461  0.38952742     1.11900
O396        O  0.92489442  0.59704686  0.34156149    -0.96300
Zr397      Zr  0.99163942  0.55994074  0.35610102     1.88900
O398        O  0.08703683  0.50313310  0.32320031    -0.73000
O399        O  0.93693097  0.43255768  0.37233669    -0.52200
O400        O  0.94613812  0.51671218  0.30979430    -0.96900
O401        O  0.99837790  0.62453639  0.32152290    -0.54100
O402        O  0.02872089  0.53986498  0.29925883    -0.73500
C403        C  0.06267740  0.51964593  0.29421721     0.98800
O404        O  0.15528736  0.45979789  0.40584758    -0.62300
O405        O  0.11835177  0.64003470  0.49580246    -0.57100
O406        O  0.15522537  0.53523903  0.40083537    -0.93800
O407        O  0.14327490  0.60046785  0.42619575    -0.92200
O408        O  0.11496235  0.54716411  0.55852872    -0.92600
O409        O  0.12353126  0.47040672  0.53352226    -0.91400
C410        C  0.16706326  0.57245098  0.41179891     1.17700
H411        H  0.04145365  0.60071832  0.51907217     0.33600
H412        H  0.06646397  0.44385035  0.45833707     0.44500
H413        H  0.07880135  0.57847610  0.36112583     0.38000
H414        H  0.92695778  0.53400630  0.39867689     0.34500
H415        H  0.05697642  0.45208759  0.57165350     0.26300
H416        H  0.95403442  0.42948495  0.34972687     0.32200
H417        H  0.92553596  0.50600869  0.32626392     0.38100
H418        H  0.10959498  0.57740978  0.55490446     0.32600
H419        H  0.14062778  0.61885565  0.50310993     0.31500
H420        H  0.08913311  0.68534157  0.41078277     0.33100
H421        H  0.02734440  0.62375650  0.31460577     0.32100
H422        H  0.13976316  0.46962193  0.51022797     0.36100
H423        H  0.15244360  0.43902818  0.42645998     0.28800
H424        H  0.88911343  0.61758383  0.48503610     0.33100
H425        H  0.91839591  0.59536326  0.31197702     0.35900
H426        H  0.13225656  0.66194422  0.48255948     0.28500
H427        H  0.15687213  0.44326928  0.38057371     0.41400
H428        H  0.95610150  0.42231014  0.49188924     0.31500
H429        H  0.01454240  0.45071637  0.54412770     0.39100
H430        H  0.99803725  0.64676062  0.34272315     0.30900
H431        H  0.93424140  0.40370227  0.38112666     0.31000
H432        H  0.88750670  0.61232391  0.43808024     0.31300
C433        C  0.12120673  0.51355721  0.20014378    -0.08900
C434        C  0.08899796  0.50333704  0.16964028     0.07300
C435        C  0.04838148  0.50021699  0.18058984    -0.02700
C436        C  0.04062255  0.50673730  0.22073595    -0.07100
C437        C  0.07302266  0.51485806  0.25166494     0.06400
C438        C  0.11361913  0.51914252  0.24071346    -0.02200
Br439      Br  0.15971215  0.53272321  0.27993289    -0.01900
H440        H  0.15289282  0.51471264  0.19279039     0.10300
H441        H  0.00914754  0.50344668  0.22807718     0.08300
Br442      Br  0.00290835  0.48315075  0.14205355    -0.02300
C443        C  0.92616321  0.57149437  0.66171796    -0.08900
C444        C  0.95708600  0.58261084  0.69296709     0.07300
C445        C  0.99897155  0.58111523  0.68504085    -0.02700
C446        C  0.00906682  0.57083751  0.64619912    -0.07100
C447        C  0.97793128  0.56227672  0.61422386     0.06400
C448        C  0.93619492  0.56092135  0.62286317    -0.02200
Br449      Br  0.89175006  0.54372895  0.58322856    -0.01900
H450        H  0.89376943  0.57261004  0.66720342     0.10300
H451        H  0.04136637  0.57153750  0.64058703     0.08300
Br452      Br  0.04324693  0.59646720  0.72539406    -0.02300
C453        C  0.08588174  0.29765933  0.33066894    -0.08900
C454        C  0.06427160  0.26656112  0.34746902     0.07300
C455        C  0.04417433  0.27713349  0.38157727    -0.02700
C456        C  0.04331119  0.31867103  0.39628217    -0.07100
C457        C  0.06202283  0.35065880  0.37740845     0.06400
C458        C  0.08503932  0.33922068  0.34512183    -0.02200
Br459      Br  0.11142102  0.37900532  0.31552503    -0.01900
H460        H  0.10085649  0.29015230  0.30396361     0.10300
H461        H  0.02598767  0.32631411  0.42143182     0.08300
Br462      Br  0.01263248  0.23737561  0.40576605    -0.02300
C463        C  0.97142130  0.78237347  0.53024423    -0.08900
C464        C  0.99849710  0.80950090  0.51487047     0.07300
C465        C  0.02051827  0.79494258  0.48313827    -0.02700
C466        C  0.01807099  0.75328098  0.46973134    -0.07100
C467        C  0.99444878  0.72454393  0.48775803     0.06400
C468        C  0.96920495  0.74014500  0.51707425    -0.02200
Br469      Br  0.93482270  0.70503793  0.54371306    -0.01900
H470        H  0.95459228  0.79310881  0.55490908     0.10300
H471        H  0.03674130  0.74287164  0.44631092     0.08300
Br472      Br  0.05729860  0.83008271  0.45921679    -0.02300
C473        C  0.77876106  0.45414773  0.45863477    -0.08900
C474        C  0.75886269  0.48455146  0.48137355     0.07300
C475        C  0.78040677  0.52127508  0.49363654    -0.02700
C476        C  0.82066176  0.52683238  0.48362258    -0.07100
C477        C  0.84211000  0.49558824  0.46287354     0.06400
C478        C  0.81999477  0.45894390  0.44975778    -0.02200
Br479      Br  0.84397234  0.41302247  0.42138394    -0.01900
H480        H  0.76312817  0.42527341  0.44989564     0.10300
H481        H  0.83584742  0.55549343  0.49396951     0.08300
Br482      Br  0.75719912  0.56456432  0.52607592    -0.02300
C483        C  0.24495841  0.55660850  0.41467307    -0.08900
C484        C  0.21076206  0.58496936  0.40772702     0.07300
C485        C  0.21905467  0.62612700  0.39757887    -0.02700
C486        C  0.25983774  0.63803391  0.39501686    -0.07100
C487        C  0.29389208  0.60984621  0.40096684     0.06400
C488        C  0.28612621  0.56864927  0.41099440    -0.02200
Br489      Br  0.33015462  0.52717472  0.41639194    -0.01900
H490        H  0.23961994  0.52482499  0.42227170     0.10300
H491        H  0.26478423  0.66922659  0.38535201     0.08300
Br492      Br  0.17608925  0.66668450  0.38101904    -0.02300
C493        C  0.02505395  0.01513556  0.62437371    -0.08900
C494        C  0.00224724  0.04210905  0.59760632     0.07300
C495        C  0.98070756  0.02512758  0.56234289    -0.02700
C496        C  0.98730645  0.98313949  0.55118432    -0.07100
C497        C  0.01027310  0.95555201  0.57770064     0.06400
C498        C  0.02794143  0.97220832  0.61553312    -0.02200
Br499      Br  0.05529110  0.93867155  0.65771543    -0.01900
H500        H  0.04131004  0.02739433  0.65203312     0.10300
H501        H  0.97413030  0.97237073  0.52173683     0.08300
Br502      Br  0.93904862  0.05808092  0.53134128    -0.02300
C503        C  0.95753938  0.08203609  0.69472642    -0.08900
C504        C  0.99322170  0.09295674  0.67787536     0.07300
C505        C  0.03149626  0.09508649  0.70260441    -0.02700
C506        C  0.03371411  0.08652892  0.74336148    -0.07100
C507        C  0.99800499  0.07672170  0.76089827     0.06400
C508        C  0.95962782  0.07375562  0.73585104    -0.02200
Br509      Br  0.90945902  0.05699463  0.75530989    -0.01900
H510        H  0.92786898  0.08076788  0.67605344     0.10300
H511        H  0.06340682  0.08920742  0.76181075     0.08300
Br512      Br  0.08150710  0.11156565  0.68230193    -0.02300
C513        C  0.77373196  0.17695207  0.91978558    -0.08900
C514        C  0.75119103  0.16525205  0.95055132     0.07300
C515        C  0.77026834  0.13843579  0.97994337    -0.02700
C516        C  0.81114098  0.12360033  0.97821710    -0.07100
C517        C  0.83451243  0.13550620  0.94780166     0.06400
C518        C  0.81493074  0.16247434  0.91800922    -0.02200
Br519      Br  0.84250056  0.18416321  0.87580816    -0.01900
H520        H  0.75976808  0.19892283  0.89798046     0.10300
H521        H  0.82489175  0.10314616  0.00146819     0.08300
Br522      Br  0.74292300  0.12410637  0.02521310    -0.02300
C523        C  0.06954813  0.56667136  0.09277245    -0.08900
C524        C  0.10656338  0.54401451  0.08744826     0.07300
C525        C  0.13855586  0.56487701  0.07173270    -0.02700
C526        C  0.13195605  0.60608855  0.05929444    -0.07100
C527        C  0.09502151  0.62904678  0.06478604     0.06400
C528        C  0.06414061  0.60894234  0.08306791    -0.02200
Br529      Br  0.01694056  0.63806210  0.10121205    -0.01900
H530        H  0.04495489  0.55163797  0.10559313     0.10300
H531        H  0.15713799  0.62120946  0.04729402     0.08300
Br532      Br  0.19388567  0.54147596  0.07193886    -0.02300
C533        C  0.06084212  0.81331780  0.05416447    -0.08900
C534        C  0.06036422  0.77953696  0.02621019     0.07300
C535        C  0.04787572  0.78732257  0.98537961    -0.02700
C536        C  0.03671721  0.82825627  0.97340795    -0.07100
C537        C  0.03899036  0.86216746  0.00139501     0.06400
C538        C  0.05036794  0.85401464  0.04232751    -0.02200
Br539      Br  0.05179376  0.89699559  0.08387516    -0.01900
H540        H  0.07053929  0.80807023  0.08566122     0.10300
H541        H  0.02840467  0.83391577  0.94179955     0.08300
Br542      Br  0.05038903  0.74455414  0.94436169    -0.02300
C543        C  0.05308119  0.04719820  0.29206230    -0.08900
C544        C  0.01131586  0.03500085  0.28815548     0.07300
C545        C  0.97955065  0.06596898  0.28777527    -0.02700
C546        C  0.98983660  0.10799551  0.29189178    -0.07100
C547        C  0.03156272  0.12025259  0.29662971     0.06400
C548        C  0.06341224  0.08943613  0.29575603    -0.02200
Br549      Br  0.12068041  0.10336397  0.29575229    -0.01900
H550        H  0.07766626  0.02360831  0.29116507     0.10300
H551        H  0.96496448  0.13146483  0.29152618     0.08300
Br552      Br  0.92172017  0.05344902  0.27920907    -0.02300
C553        C  0.05209763  0.99638645  0.19738469    -0.08900
C554        C  0.01356675  0.98573472  0.20872635     0.07300
C555        C  0.97747872  0.98992379  0.18124163    -0.02700
C556        C  0.98035975  0.00362949  0.14276783    -0.07100
C557        C  0.01892307  0.01325907  0.13050685     0.06400
C558        C  0.05510099  0.01020920  0.15861599    -0.02200
Br559      Br  0.10894491  0.02620289  0.14709585    -0.01900
H560        H  0.07994226  0.99353299  0.21857381     0.10300
H561        H  0.95219845  0.00552293  0.12186459     0.08300
Br562      Br  0.92337591  0.97618040  0.19412084    -0.02300
C563        C  0.22558513  0.00584526  0.93325853    -0.08900
C564        C  0.19533747  0.98208208  0.94824567     0.07300
C565        C  0.20570502  0.94104856  0.96011789    -0.02700
C566        C  0.24492126  0.92378610  0.95499565    -0.07100
C567        C  0.27501173  0.94690459  0.93912205     0.06400
C568        C  0.26531037  0.98860417  0.92879163    -0.02200
Br569      Br  0.30285958  0.02099307  0.90304755    -0.01900
H570        H  0.21771277  0.03722972  0.92344904     0.10300
H571        H  0.25095612  0.89104300  0.96092277     0.08300
Br572      Br  0.16558367  0.90501694  0.97803578    -0.02300
C573        C  0.98683964  0.49351501  0.81808211    -0.08900
C574        C  0.95790599  0.46334405  0.80222413     0.07300
C575        C  0.92133643  0.47837547  0.77858038    -0.02700
C576        C  0.91900380  0.51900648  0.76462422    -0.07100
C577        C  0.94970616  0.54758179  0.77778434     0.06400
C578        C  0.98298442  0.53508948  0.80597568    -0.02200
Br579      Br  0.02392518  0.57383766  0.82849260    -0.01900
H580        H  0.01236673  0.48595780  0.84028861     0.10300
H581        H  0.89126243  0.52966776  0.74607046     0.08300
Br582      Br  0.86958473  0.44928478  0.77110959    -0.02300
C583        C  0.03335319  0.25617958  0.87265618    -0.08900
C584        C  0.00091359  0.24119925  0.89222732     0.07300
C585        C  0.96602621  0.26738121  0.89690948    -0.02700
C586        C  0.96261582  0.30659078  0.87961955    -0.07100
C587        C  0.99376612  0.32060469  0.85781259     0.06400
C588        C  0.02977443  0.29536030  0.85501270    -0.02200
Br589      Br  0.07308125  0.31142308  0.82470539    -0.01900
H590        H  0.06066162  0.23648250  0.86940003     0.10300
H591        H  0.93453470  0.32552209  0.88158725     0.08300
Br592      Br  0.92254866  0.25110465  0.92690585    -0.02300
C593        C  0.12657448  0.18875589  0.37465435    -0.08900
C594        C  0.08731662  0.17110098  0.36488731     0.07300
C595        C  0.07769176  0.13658036  0.38689297    -0.02700
C596        C  0.10851308  0.11782739  0.41387994    -0.07100
C597        C  0.14689435  0.13686874  0.42552856     0.06400
C598        C  0.15509316  0.17366210  0.40592638    -0.02200
Br599      Br  0.20089269  0.20887251  0.42327505    -0.01900
H600        H  0.13458595  0.21563830  0.35879922     0.10300
H601        H  0.10081492  0.09018217  0.42874254     0.08300
Br602      Br  0.02179409  0.11895315  0.38865847    -0.02300
C603        C  0.08461188  0.14033371  0.49996298    -0.08900
C604        C  0.11485427  0.10812198  0.50570736     0.07300
C605        C  0.10507280  0.07282363  0.52634671    -0.02700
C606        C  0.07066469  0.07407563  0.54797877    -0.07100
C607        C  0.04243069  0.10841445  0.54630360     0.06400
C608        C  0.04745285  0.13923748  0.51793719    -0.02200
Br609      Br  0.00427069  0.17944508  0.50115627    -0.01900
H610        H  0.09019042  0.16684608  0.48237909     0.10300
H611        H  0.06829805  0.04881157  0.56772590     0.08300
Br612      Br  0.13858428  0.02226685  0.52705603    -0.02300
C613        C  0.28145691  0.14426735  0.44814527    -0.08900
C614        C  0.24759185  0.11737873  0.44029262     0.07300
C615        C  0.25347979  0.08017534  0.41777961    -0.02700
C616        C  0.29350760  0.06836302  0.40783898    -0.07100
C617        C  0.32798684  0.09398407  0.41863142     0.06400
C618        C  0.32090215  0.13341173  0.43683972    -0.02200
Br619      Br  0.36556710  0.17066914  0.45338492    -0.01900
H620        H  0.27832445  0.17217330  0.46680029     0.10300
H621        H  0.29824309  0.03784508  0.39399136     0.08300
Br622      Br  0.20916775  0.04169595  0.40554291    -0.02300
C623        C  0.40485460  0.97967410  0.96328927    -0.08900
C624        C  0.37322982  0.95084156  0.96572993     0.07300
C625        C  0.36688012  0.93737622  0.00418988    -0.02700
C626        C  0.39097188  0.95279486  0.03847870    -0.07100
C627        C  0.42424115  0.97937392  0.03617028     0.06400
C628        C  0.43074876  0.99338318  0.99790377    -0.02200
Br629      Br  0.47650377  0.02768576  0.99040246    -0.01900
H630        H  0.41072055  0.98999264  0.93413162     0.10300
H631        H  0.38578174  0.94102530  0.06733774     0.08300
Br632      Br  0.33165167  0.89218614  0.01247734    -0.02300
C633        C  0.43799966  0.04941340  0.23264452    -0.08900
C634        C  0.47579173  0.04907745  0.25811484     0.07300
C635        C  0.51323305  0.04390759  0.24034921    -0.02700
C636        C  0.51241987  0.03412384  0.19914971    -0.07100
C637        C  0.47463622  0.03105102  0.17409138     0.06400
C638        C  0.43730826  0.04111251  0.19089703    -0.02200
Br639      Br  0.38432118  0.03873526  0.15872423    -0.01900
H640        H  0.40884838  0.05322622  0.24548374     0.10300
H641        H  0.54146227  0.02634359  0.18716721     0.08300
Br642      Br  0.56660955  0.04730955  0.27177940    -0.02300
C643        C  0.89076019  0.94436656  0.52027971    -0.08900
C644        C  0.88798465  0.94389629  0.47803779     0.07300
C645        C  0.90948827  0.91154351  0.45897710    -0.02700
C646        C  0.94191819  0.88937192  0.48099700    -0.07100
C647        C  0.94970672  0.89542889  0.52284777     0.06400
C648        C  0.91990232  0.91848504  0.54259727    -0.02200
Br649      Br  0.92057417  0.91829040  0.59977643    -0.01900
H650        H  0.87249825  0.96685606  0.53608630     0.10300
H651        H  0.96177984  0.86862527  0.46511717     0.08300
Br652      Br  0.89119967  0.89167277  0.40567826    -0.02300
C653        C  0.90044978  0.97951404  0.37091233    -0.08900
C654        C  0.92110576  0.99470748  0.40721153     0.07300
C655        C  0.96396974  0.00341015  0.40911455    -0.02700
C656        C  0.98553672  0.99414951  0.37581023    -0.07100
C657        C  0.96500598  0.97638633  0.34053193     0.06400
C658        C  0.92200353  0.96900725  0.33830900    -0.02200
Br659      Br  0.89016906  0.94627108  0.29105947    -0.01900
H660        H  0.86708354  0.97515964  0.36811770     0.10300
H661        H  0.01845260  0.00047973  0.37754774     0.08300
Br662      Br  0.99493970  0.02861592  0.45509832    -0.02300
C663        C  0.77671169  0.95708515  0.45299002    -0.08900
C664        C  0.79838247  0.98668464  0.47863298     0.07300
C665        C  0.77765063  0.00734664  0.50865397    -0.02700
C666        C  0.73492245  0.00197701  0.50961816    -0.07100
C667        C  0.71215450  0.97621493  0.48090131     0.06400
C668        C  0.73375635  0.95205554  0.45373154    -0.02200
Br669      Br  0.70462745  0.91614974  0.41373438    -0.01900
H670        H  0.79210975  0.94108603  0.42961425     0.10300
H671        H  0.71870654  0.02101564  0.53048353     0.08300
Br672      Br  0.80565480  0.04628534  0.54654648    -0.02300
C673        C  0.63197198  0.13297268  0.85090732    -0.08900
C674        C  0.65176717  0.09353348  0.84869169     0.07300
C675        C  0.67298964  0.07740960  0.88424351    -0.02700
C676        C  0.67598390  0.10158907  0.92034556    -0.07100
C677        C  0.65891172  0.14245754  0.92176779     0.06400
C678        C  0.63613886  0.15768484  0.88639871    -0.02200
Br679      Br  0.61619986  0.21458859  0.88248462    -0.01900
H680        H  0.61661881  0.14642192  0.82368141     0.10300
H681        H  0.69454579  0.08969765  0.94665836     0.08300
Br682      Br  0.70248026  0.02476177  0.88398210    -0.02300
C683        C  0.57049721  0.04002136  0.65373160    -0.08900
C684        C  0.59245277  0.01498245  0.62743754     0.07300
C685        C  0.63055291  0.99585505  0.64352576    -0.02700
C686        C  0.64687920  0.00445534  0.68387632    -0.07100
C687        C  0.62577743  0.03154205  0.70916773     0.06400
C688        C  0.58677650  0.04859549  0.69369365    -0.02200
Br689      Br  0.55715404  0.08897698  0.72387025    -0.01900
H690        H  0.54130018  0.05525129  0.64243123     0.10300
H691        H  0.67741697  0.99188343  0.69483441     0.08300
Br692      Br  0.66405330  0.96192879  0.61088644    -0.02300
C693        C  0.50458075  0.68149343  0.40649413    -0.08900
C694        C  0.52554666  0.66835847  0.37346320     0.07300
C695        C  0.50176724  0.65002268  0.33984157    -0.02700
C696        C  0.46055446  0.63914727  0.34245257    -0.07100
C697        C  0.43969231  0.65126365  0.37587051     0.06400
C698        C  0.46166672  0.67586214  0.40656423    -0.02200
Br699      Br  0.43442598  0.70938007  0.44456700    -0.01900
H700        H  0.52133290  0.69771006  0.43192769     0.10300
H701        H  0.44405381  0.62274669  0.31695490     0.08300
Br702      Br  0.52097463  0.64439296  0.28791078    -0.02300
C703        C  0.54695638  0.77010200  0.37353170    -0.08900
C704        C  0.57387549  0.74927433  0.40255163     0.07300
C705        C  0.58880868  0.77132197  0.43816763    -0.02700
C706        C  0.57929956  0.81388833  0.44292164    -0.07100
C707        C  0.55447087  0.83592336  0.41288016     0.06400
C708        C  0.53689222  0.81279432  0.37832066    -0.02200
Br709      Br  0.49928957  0.83632687  0.33581191    -0.01900
H710        H  0.53510105  0.75351065  0.34608269     0.10300
H711        H  0.59229880  0.82988355  0.47028037     0.08300
Br712      Br  0.62229665  0.74482947  0.48176457    -0.02300
C713        C  0.54265829  0.43618744  0.49294136    -0.08900
C714        C  0.53801680  0.39932596  0.51344146     0.07300
C715        C  0.57455430  0.37849185  0.53097681    -0.02700
C716        C  0.61396447  0.39376862  0.52664632    -0.07100
C717        C  0.61853703  0.43085340  0.50664735     0.06400
C718        C  0.58223782  0.45241499  0.49044834    -0.02200
Br719      Br  0.58511872  0.50697534  0.47038514    -0.01900
H720        H  0.51515855  0.45357846  0.48059983     0.10300
H721        H  0.64137244  0.37793234  0.54137095     0.08300
Br722      Br  0.57350098  0.33465074  0.56810189    -0.02300
C723        C  0.50094844  0.25065023  0.44609542    -0.08900
C724        C  0.50136570  0.22111346  0.47641762     0.07300
C725        C  0.50107987  0.23651871  0.51667253    -0.02700
C726        C  0.49892920  0.27923463  0.52521516    -0.07100
C727        C  0.49742931  0.30864614  0.49527827     0.06400
C728        C  0.49884225  0.29401832  0.45530528    -0.02200
Br729      Br  0.49503976  0.33236396  0.41243809    -0.01900
H730        H  0.50136019  0.24008873  0.41513177     0.10300
H731        H  0.49492385  0.28970513  0.55564381     0.08300
Br732      Br  0.49837550  0.20259614  0.56247334    -0.02300
C733        C  0.42436556  0.08077820  0.06576586    -0.08900
C734        C  0.46044505  0.06110309  0.08406732     0.07300
C735        C  0.49884968  0.08129058  0.08558432    -0.02700
C736        C  0.50000961  0.12204274  0.07245512    -0.07100
C737        C  0.46358960  0.14276443  0.05589918     0.06400
C738        C  0.42573538  0.12092775  0.05107286    -0.02200
Br739      Br  0.37496621  0.14367390  0.02365313    -0.01900
H740        H  0.39516005  0.06464288  0.06267346     0.10300
H741        H  0.52931832  0.13778030  0.07672707     0.08300
Br742      Br  0.55104331  0.05380305  0.10290854    -0.02300
C743        C  0.56867264  0.20278915  0.04880677    -0.08900
C744        C  0.53202733  0.19769559  0.02277509     0.07300
C745        C  0.53501686  0.18331684  0.98303581    -0.02700
C746        C  0.57427665  0.17894808  0.96871897    -0.07100
C747        C  0.61099363  0.18830853  0.99384905     0.06400
C748        C  0.60773323  0.19674503  0.03522323    -0.02200
Br749      Br  0.65541461  0.19981703  0.07525434    -0.01900
H750        H  0.56669868  0.21221474  0.07985841     0.10300
H751        H  0.57548808  0.17035472  0.93753405     0.08300
Br752      Br  0.48611256  0.17229234  0.94681682    -0.02300
C753        C  0.50228604  0.29556748  0.98990232    -0.08900
C754        C  0.50157579  0.28955519  0.03093012     0.07300
C755        C  0.51019885  0.32334206  0.05837062    -0.02700
C756        C  0.51597882  0.36305413  0.04437135    -0.07100
C757        C  0.51401755  0.36978414  0.00311406     0.06400
C758        C  0.50832717  0.33524628  0.97577792    -0.02200
Br759      Br  0.50325615  0.34079239  0.91861796    -0.01900
H760        H  0.49482821  0.27008513  0.96849160     0.10300
H761        H  0.52159028  0.38888615  0.06581743     0.08300
Br762      Br  0.51352806  0.31686735  0.11533388    -0.02300
C763        C  0.05816444  0.42355486  0.82780544    -0.08900
C764        C  0.03147720  0.40974187  0.85430930     0.07300
C765        C  0.04769525  0.40430018  0.89484023    -0.02700
C766        C  0.09058106  0.40953363  0.90708227    -0.07100
C767        C  0.11712702  0.42342968  0.88011860     0.06400
C768        C  0.09934575  0.43294736  0.84076021    -0.02200
Br769      Br  0.12910823  0.45947404  0.80257292    -0.01900
H770        H  0.04643362  0.42783911  0.79659279     0.10300
H771        H  0.10319642  0.40172264  0.93729701     0.08300
Br772      Br  0.01263585  0.39021214  0.93428518    -0.02300
C773        C  0.17497754  0.44157970  0.03215132    -0.08900
C774        C  0.13882169  0.46677845  0.03366942     0.07300
C775        C  0.12068325  0.48467006  0.99766898    -0.02700
C776        C  0.13965130  0.47822890  0.96191299    -0.07100
C777        C  0.17489544  0.45123537  0.96022241     0.06400
C778        C  0.19204513  0.43265935  0.99628860    -0.02200
Br779      Br  0.23411182  0.38923557  0.99861785    -0.01900
H780        H  0.18880926  0.42637120  0.05904667     0.10300
H781        H  0.12499980  0.49195050  0.93459365     0.08300
Br782      Br  0.06723305  0.51250548  0.99425092    -0.02300
C783        C  0.34500504  0.43909622  0.94281448    -0.08900
C784        C  0.34979522  0.48220648  0.94723928     0.07300
C785        C  0.31369819  0.50825899  0.94689225    -0.02700
C786        C  0.27364753  0.49105816  0.94003099    -0.07100
C787        C  0.26885780  0.44791522  0.93272327     0.06400
C788        C  0.30543928  0.42189367  0.93531970    -0.02200
Br789      Br  0.30411025  0.36234865  0.92617137    -0.01900
H790        H  0.37238180  0.41871308  0.94288548     0.10300
H791        H  0.24640966  0.51173964  0.93734139     0.08300
Br792      Br  0.31788868  0.56762084  0.95347381    -0.02300
C793        C  0.60067829  0.94194600  0.80409464    -0.08900
C794        C  0.55836739  0.95063628  0.80768494     0.07300
C795        C  0.54480774  0.99270704  0.81160663    -0.02700
C796        C  0.57251047  0.02480342  0.80759255    -0.07100
C797        C  0.61303492  0.01544358  0.79847481     0.06400
C798        C  0.62760017  0.97373827  0.79853969    -0.02200
Br799      Br  0.68314929  0.95838814  0.78793838    -0.01900
H800        H  0.61193648  0.90985741  0.80184126     0.10300
H801        H  0.56161413  0.05702022  0.80880098     0.08300
Br802      Br  0.48881429  0.00869279  0.81938370    -0.02300
C803        C  0.44690024  0.91937165  0.82823189    -0.08900
C804        C  0.48379896  0.90360354  0.84925739     0.07300
C805        C  0.48418228  0.89529991  0.89030252    -0.02700
C806        C  0.44720159  0.90005491  0.90872799    -0.07100
C807        C  0.40997926  0.91407497  0.88674462     0.06400
C808        C  0.41082126  0.92580197  0.84670167    -0.02200
Br809      Br  0.36277538  0.94863866  0.81461034    -0.01900
H810        H  0.44579921  0.92535470  0.79654495     0.10300
H811        H  0.44703711  0.89083841  0.93945992     0.08300
Br812      Br  0.53400242  0.87599359  0.92138319    -0.02300
C813        C  0.55931688  0.79599579  0.84586454    -0.08900
C814        C  0.51976685  0.81282327  0.83221536     0.07300
C815        C  0.48414150  0.79016410  0.83637232    -0.02700
C816        C  0.48833403  0.75168358  0.85497173    -0.07100
C817        C  0.52785261  0.73454760  0.86840195     0.06400
C818        C  0.56365931  0.75698953  0.86361158    -0.02200
Br819      Br  0.61885930  0.73654989  0.88180771    -0.01900
H820        H  0.58696090  0.81303814  0.84205635     0.10300
H821        H  0.46058877  0.73449155  0.85803913     0.08300
Br822      Br  0.42949263  0.80946616  0.81535700    -0.02300
C823        C  0.94846590  0.68830172  0.01253435    -0.08900
C824        C  0.94682256  0.65166595  0.98822788     0.07300
C825        C  0.98442390  0.63428770  0.97683872    -0.02700
C826        C  0.02259679  0.65215219  0.99182162    -0.07100
C827        C  0.02432228  0.68693672  0.01875631     0.06400
C828        C  0.98638216  0.70550754  0.02836877    -0.02200
Br829      Br  0.98354057  0.74860665  0.06911865    -0.01900
H830        H  0.91994523  0.70157521  0.02227967     0.10300
H831        H  0.05133849  0.63763085  0.98395439     0.08300
Br832      Br  0.98591984  0.58418409  0.94425906    -0.02300
C833        C  0.90873522  0.65535601  0.89656115    -0.08900
C834        C  0.88998070  0.62022617  0.90970594     0.07300
C835        C  0.88579373  0.58470625  0.88357196    -0.02700
C836        C  0.89710680  0.58604723  0.84454997    -0.07100
C837        C  0.91668359  0.62081212  0.83151251     0.06400
C838        C  0.92345698  0.65533283  0.85883221    -0.02200
Br839      Br  0.95634181  0.70182795  0.84855111    -0.01900
H840        H  0.91357785  0.68245935  0.91649820     0.10300
H841        H  0.89061547  0.55932571  0.82477540     0.08300
Br842      Br  0.87080154  0.53145689  0.90085286    -0.02300
C843        C  0.73322681  0.62633397  0.92173286    -0.08900
C844        C  0.71530909  0.58904951  0.93128600     0.07300
C845        C  0.74195828  0.55501084  0.94318745    -0.02700
C846        C  0.78522581  0.55952336  0.94834262    -0.07100
C847        C  0.80332353  0.59779510  0.94230836     0.06400
C848        C  0.77681199  0.63109006  0.92772360    -0.02200
Br849      Br  0.79796748  0.68549400  0.92206963    -0.01900
H850        H  0.71321591  0.65294306  0.91289956     0.10300
H851        H  0.80475151  0.53390492  0.96062206     0.08300
Br852      Br  0.72065818  0.50231476  0.95554610    -0.02300
C853        C  0.38931920  0.63726722  0.51592959    -0.08900
C854        C  0.42626342  0.61345346  0.52469008     0.07300
C855        C  0.44437900  0.59359242  0.49259098    -0.02700
C856        C  0.42478807  0.59679393  0.45302512    -0.07100
C857        C  0.38791207  0.62101585  0.44429592     0.06400
C858        C  0.37043516  0.64157789  0.47654519    -0.02200
Br859      Br  0.32537616  0.68175944  0.46896999    -0.01900
H860        H  0.37564888  0.65390900  0.54005089     0.10300
H861        H  0.43940420  0.58184516  0.42863514     0.08300
Br862      Br  0.49784125  0.56607068  0.50044594    -0.02300
C863        C  0.42866501  0.47932708  0.53798232    -0.08900
C864        C  0.46526397  0.45502255  0.54847242     0.07300
C865        C  0.49591897  0.47231847  0.57746319    -0.02700
C866        C  0.49116075  0.51375448  0.59174267    -0.07100
C867        C  0.45459890  0.53756675  0.58078325     0.06400
C868        C  0.42220156  0.51871907  0.55556830    -0.02200
Br869      Br  0.36678251  0.54253942  0.54828157    -0.01900
H870        H  0.40354653  0.46678797  0.51726801     0.10300
H871        H  0.51601798  0.52732091  0.61199357     0.08300
Br872      Br  0.54175293  0.44060607  0.60341816    -0.02300
C873        C  0.44937623  0.56719064  0.73494371    -0.08900
C874        C  0.49099697  0.56726162  0.75350180     0.07300
C875        C  0.52294116  0.56955222  0.72803392    -0.02700
C876        C  0.51297129  0.57526083  0.68669839    -0.07100
C877        C  0.47163041  0.57782958  0.66897253     0.06400
C878        C  0.43965719  0.57255924  0.69336680    -0.02200
Br879      Br  0.38210731  0.57619843  0.67164343    -0.01900
H880        H  0.42393304  0.56487852  0.75301463     0.10300
H881        H  0.53787325  0.57999644  0.66846251     0.08300
Br882      Br  0.58114294  0.56514582  0.74632144    -0.02300
C883        C  0.66152801  0.49242737  0.37205842    -0.08900
C884        C  0.64225868  0.45689020  0.35357251     0.07300
C885        C  0.63620006  0.42305974  0.37828237    -0.02700
C886        C  0.65095848  0.42471466  0.41936375    -0.07100
C887        C  0.66965030  0.46052760  0.43769991     0.06400
C888        C  0.67301686  0.49530872  0.41363317    -0.02200
Br889      Br  0.68713567  0.54950054  0.43583002    -0.01900
H890        H  0.66731638  0.51868618  0.35438149     0.10300
H891        H  0.64702406  0.39803852  0.43732601     0.08300
Br892      Br  0.60535226  0.37470296  0.35906028    -0.02300
C893        C  0.57708096  0.53302290  0.32829802    -0.08900
C894        C  0.60451207  0.52823594  0.29866412     0.07300
C895        C  0.62675654  0.56309861  0.28966483    -0.02700
C896        C  0.62186728  0.60111279  0.31039310    -0.07100
C897        C  0.59661555  0.60540528  0.34187369     0.06400
C898        C  0.57379684  0.57070648  0.35056696    -0.02200
Br899      Br  0.54170110  0.57096721  0.39496514    -0.01900
H900        H  0.56074884  0.50612569  0.33634708     0.10300
H901        H  0.64014383  0.62711329  0.30343751     0.08300
Br902      Br  0.66979712  0.55941645  0.25494969    -0.02300
C903        C  0.56266646  0.51264950  0.19841866    -0.08900
C904        C  0.60230171  0.49359312  0.20744937     0.07300
C905        C  0.62899861  0.49053148  0.17680755    -0.02700
C906        C  0.61519259  0.50361783  0.13803219    -0.07100
C907        C  0.57479580  0.52021389  0.12810953     0.06400
C908        C  0.54892786  0.52611986  0.15922863    -0.02200
Br909      Br  0.49570117  0.55430830  0.15024621    -0.01900
H910        H  0.54184548  0.51584551  0.22145638     0.10300
H911        H  0.63606724  0.49971960  0.11506735     0.08300
Br912      Br  0.68548022  0.46930673  0.18602009    -0.02300
loop_ 
_geom_bond_atom_site_label_1 
_geom_bond_atom_site_label_2 
_geom_bond_distance 
_geom_bond_site_symmetry_2 
_ccdc_geom_bond_type 
N1            C5   1.371       .  A
N1            C2   1.369       .  A
N1          C894   1.447       .  S
C2            C3   1.383       .  A
C2          C904   1.501       .  S
C3            C4   1.371       .  A
C3            H6   1.082       .  S
C4            C5   1.383       .  A
C4            H7   1.081       .  S
C5          C884   1.506       .  S
N8           C12   1.369       .  A
N8            C9   1.366       .  A
N8          C867   1.447       .  S
C9           C10   1.379       .  A
C9          C877   1.488       .  S
C10          C11   1.370       .  A
C10          H13   1.082       .  S
C11          C12   1.383       .  A
C11          H14   1.082       .  S
C12         C854   1.494       .  S
N15          C19   1.369       .  A
N15          C16   1.371       .  A
N15         C834   1.451       .  S
C16          C17   1.380   1_556  A
C16         C847   1.493       .  S
C17          C18   1.366       .  A
C17          H20   1.083       .  S
C18          C19   1.382   1_554  A
C18          H21   1.083       .  S
C19         C824   1.493       .  S
N22          C26   1.363       .  A
N22          C23   1.360       .  A
N22         C804   1.445       .  S
C23          C24   1.375       .  A
C23         C814   1.473       .  S
C24          C25   1.365       .  A
C24          H27   1.082       .  S
C25          C26   1.388       .  A
C25          H28   1.083       .  S
C26         C794   1.484       .  S
N29          C33   1.374       .  A
N29          C30   1.379       .  A
N29         C777   1.460       .  S
C30          C31   1.381       .  A
C30         C787   1.500       .  S
C31          C32   1.358       .  A
C31          H34   1.082       .  S
C32          C33   1.381       .  A
C32          H35   1.082       .  S
C33         C767   1.497       .  S
N36          C40   1.365       .  A
N36          C37   1.360       .  A
N36         C744   1.446       .  S
C37          C38   1.378       .  A
C37         C754   1.477       .  S
C38          C39   1.365       .  A
C38          H41   1.082       .  S
C39          C40   1.384       .  A
C39          H42   1.082       .  S
C40         C737   1.484       .  S
Zr43         O44   2.435       .  S
Zr43         O45   2.443       .  S
Zr43         O46   2.482       .  S
Zr43         O49   2.465       .  S
Zr43         O51   2.383       .  S
Zr43         O52   2.395       .  S
Zr43         O53   2.413       .  S
Zr43         O54   2.409       .  S
O44         H100   0.990       .  S
O44         H108   0.990       .  S
O45          C65   1.284       .  A
O46          C67   1.293       .  A
O47         Zr57   2.440       .  S
O47          C66   1.286       .  A
O48         Zr56   2.441       .  S
O48          C67   1.288       .  A
O49          C66   1.288       .  A
O50         Zr58   2.411       .  S
O50          C65   1.279       .  A
O51         Zr56   2.395       .  S
O51         Zr58   2.378       .  S
O52         Zr57   2.398       .  S
O52         Zr58   2.383       .  S
O52          H87   0.964       .  S
O53         Zr56   2.410       .  S
O53         Zr73   2.391       .  S
O53          H90   0.965       .  S
O54         Zr57   2.392       .  S
O54         Zr73   2.387       .  S
Zr55         O80   2.438   1_556  S
Zr55         O74   2.448   1_556  S
Zr55         O82   2.460   1_556  S
Zr55         O70   2.466       .  S
Zr55         O61   2.412   1_556  S
Zr55         O62   2.411       .  S
Zr55         O63   2.387       .  S
Zr55         O64   2.388       .  S
Zr56         O75   2.436       .  S
Zr56         O68   2.434       .  S
Zr56         O69   2.447       .  S
Zr56         O62   2.399       .  S
Zr56         O63   2.396       .  S
Zr57         O59   2.435   1_556  S
Zr57         O81   2.436   1_556  S
Zr57         O83   2.448   1_556  S
Zr57         O61   2.389   1_556  S
Zr57         O64   2.393       .  S
Zr58         O84   2.435   1_556  S
Zr58         O85   2.435   1_556  S
Zr58         O60   2.438       .  S
Zr58         O61   2.402   1_556  S
Zr58         O62   2.393       .  S
O59          H96   0.991       .  S
O60          H91   0.990       .  S
O60         H105   0.990       .  S
O62          H88   0.966       .  S
O63         Zr73   2.378       .  S
O64         Zr73   2.380       .  S
O64          H89   0.967   1_556  S
C65         C817   1.475       .  S
C66         C844   1.489       .  S
C67         C874   1.511       .  S
O68         H104   0.990       .  S
O69          C71   1.287       .  A
O70          C71   1.290       .  A
C71         C784   1.488       .  S
O72         Zr73   2.437       .  S
O72         H101   0.990       .  S
Zr73         O76   2.435       .  S
Zr73         O77   2.441       .  S
Zr73         O78   2.411       .  S
O74          C79   1.288   1_554  A
O75          H92   0.990       .  S
O75         H107   0.990       .  S
O76          H93   0.990       .  S
O77          H97   0.990       .  S
O77         H106   0.990       .  S
O78          C79   1.279       .  A
C79         C757   1.480   1_556  S
O80          H99   0.990       .  S
O80         H103   0.990       .  S
O81          H95   0.990       .  S
O81         H102   0.990       .  S
O82          C86   1.289       .  A
O83          C86   1.287       .  A
O84          H94   0.990   1_554  S
O85          H98   0.990       .  S
C86         C907   1.499       .  S
N109        C113   1.376       .  A
N109        C110   1.374       .  A
N109        C714   1.455       .  S
C110        C111   1.378       .  A
C110        C727   1.486       .  S
C111        C112   1.360       .  A
C111        H114   1.083       .  S
C112        C113   1.385       .  A
C112        H115   1.082       .  S
C113        C864   1.505       .  S
N116        C120   1.374       .  A
N116        C117   1.368       .  A
N116        C694   1.455       .  S
C117        C118   1.380       .  A
C117        C704   1.489       .  S
C118        C119   1.364       .  A
C118        H121   1.082       .  S
C119        C120   1.384       .  A
C119        H122   1.083       .  S
C120        C897   1.496       .  S
N123        C127   1.361       .  A
N123        C124   1.365       .  A
N123        C797   1.435       .  S
C124        C125   1.381       .  A
C124        C687   1.499       .  S
C125        C126   1.378       .  A
C125        H128   1.082       .  S
C126        C127   1.384       .  A
C126        H129   1.082       .  S
C127        C674   1.494       .  S
N130        C134   1.370   1_565  A
N130        C131   1.360   1_565  A
N130        C644   1.450       .  S
C131        C132   1.382       .  A
C131        C664   1.486   1_545  S
C132        C133   1.370       .  A
C132        H135   1.082       .  S
C133        C134   1.382       .  A
C133        H136   1.083       .  S
C134        C654   1.480   1_545  S
N137        C141   1.363   1_545  A
N137        C138   1.364       .  A
N137        C734   1.436       .  S
C138        C139   1.379   1_545  A
C138        C637   1.498       .  S
C139        C140   1.375       .  A
C139        H142   1.082       .  S
C140        C141   1.387       .  A
C140        H143   1.082       .  S
C141        C627   1.502       .  S
N144        C148   1.372       .  A
N144        C145   1.374       .  A
N144        C597   1.456       .  S
C145        C146   1.381       .  A
C145        C614   1.494       .  S
C146        C147   1.363       .  A
C146        H149   1.083       .  S
C147        C148   1.381       .  A
C147        H150   1.083       .  S
C148        C604   1.495       .  S
Zr151       O152   2.440       .  S
Zr151       O153   2.474       .  S
Zr151       O154   2.508       .  S
Zr151       O157   2.495       .  S
Zr151       O159   2.400       .  S
Zr151       O160   2.395       .  S
Zr151       O161   2.425       .  S
Zr151       O162   2.417       .  S
O152        H208   0.990       .  S
O152        H216   0.990       .  S
O153        C173   1.290       .  A
O154        C175   1.296       .  A
O155       Zr165   2.398       .  S
O155        C174   1.277       .  A
O156       Zr164   2.435   1_545  S
O156        C175   1.284       .  A
O157        C174   1.296       .  A
O158       Zr166   2.425       .  S
O158        C173   1.281       .  A
O159       Zr164   2.402   1_545  S
O159       Zr166   2.388       .  S
O160       Zr165   2.393       .  S
O160       Zr166   2.374       .  S
O160        H195   0.969       .  S
O161       Zr164   2.404   1_545  S
O161       Zr181   2.380       .  S
O161        H198   0.949       .  S
O162       Zr165   2.396       .  S
O162       Zr181   2.389       .  S
Zr163       O188   2.439       .  S
Zr163       O182   2.470       .  S
Zr163       O190   2.491       .  S
Zr163       O178   2.449       .  S
Zr163       O169   2.412   1_565  S
Zr163       O170   2.425       .  S
Zr163       O171   2.392       .  S
Zr163       O172   2.375   1_565  S
Zr164       O183   2.438       .  S
Zr164       O176   2.436       .  S
Zr164       O177   2.437       .  S
Zr164       O170   2.396       .  S
Zr164       O171   2.401       .  S
Zr165       O167   2.436       .  S
Zr165       O189   2.437       .  S
Zr165       O191   2.420       .  S
Zr165       O169   2.386       .  S
Zr165       O172   2.381       .  S
Zr166       O192   2.436       .  S
Zr166       O193   2.435   1_545  S
Zr166       O168   2.439   1_545  S
Zr166       O169   2.409       .  S
Zr166       O170   2.398   1_545  S
O167        H204   0.990       .  S
O168        H199   0.990       .  S
O168        H213   0.990       .  S
O170        H196   0.962       .  S
O171       Zr181   2.382   1_565  S
O172       Zr181   2.373       .  S
O172        H197   0.964       .  S
C173        C617   1.493       .  S
C174        C724   1.503       .  S
C175        C634   1.496       .  S
O176        H212   0.990       .  S
O177        C179   1.284       .  A
O178        C179   1.290       .  A
C179        C707   1.503       .  S
O180       Zr181   2.440       .  S
O180        H209   0.990       .  S
Zr181       O184   2.435       .  S
Zr181       O185   2.440       .  S
Zr181       O186   2.407       .  S
O182        C187   1.289       .  A
O183        H200   0.990       .  S
O183        H215   0.989       .  S
O184        H201   0.989       .  S
O185        H205   0.990       .  S
O185        H214   0.989       .  S
O186        C187   1.279   1_545  A
C187        C667   1.477       .  S
O188        H207   0.990       .  S
O188        H211   0.990       .  S
O189        H203   0.990       .  S
O189        H210   0.989       .  S
O190        C194   1.294   1_565  A
O191        C194   1.282       .  A
O192        H202   0.990       .  S
O193        H206   0.990       .  S
C194        C684   1.507       .  S
N217        C221   1.378       .  A
N217        C218   1.366       .  A
N217        C764   1.449   1_655  S
C218        C219   1.372       .  A
C218        C587   1.478       .  S
C219        C220   1.360       .  A
C219        H222   1.082       .  S
C220        C221   1.388       .  A
C220        H223   1.080       .  S
C221        C574   1.517       .  S
N224        C228   1.364       .  A
N224        C225   1.365       .  A
N224        C624   1.454       .  S
C225        C226   1.379       .  A
C225        C567   1.480       .  S
C226        C227   1.365       .  A
C226        H229   1.083       .  S
C227        C228   1.384       .  A
C227        H230   1.083       .  S
C228        C807   1.482       .  S
N231        C235   1.356   1_455  A
N231        C232   1.353       .  A
N231        C544   1.442   1_565  S
C232        C233   1.381       .  A
C232        C554   1.473       .  S
C233        C234   1.376   1_455  A
C233        H236   1.082       .  S
C234        C235   1.383       .  A
C234        H237   1.082       .  S
C235        C657   1.475       .  S
N238        C242   1.373       .  A
N238        C239   1.372       .  A
N238        C827   1.451       .  S
C239        C240   1.381       .  A
C239        C534   1.494       .  S
C240        C241   1.366       .  A
C240        H243   1.083       .  S
C241        C242   1.383       .  A
C241        H244   1.082       .  S
C242        C527   1.502       .  S
N245        C249   1.369       .  A
N245        C246   1.363       .  A
N245        C677   1.451       .  S
C246        C247   1.376       .  A
C246        C514   1.477       .  S
C247        C248   1.367       .  A
C247        H250   1.083       .  S
C248        C249   1.388       .  A
C248        H251   1.082   1_556  S
C249        C747   1.500       .  S
N252        C256   1.369       .  A
N252        C253   1.360   1_455  A
N252        C494   1.445       .  S
C253        C254   1.378       .  A
C253        C504   1.481       .  S
C254        C255   1.373   1_655  A
C254        H257   1.082       .  S
C255        C256   1.388       .  A
C255        H258   1.080       .  S
C256        C607   1.511       .  S
Zr259       O260   2.438   1_556  S
Zr259       O261   2.439   1_546  S
Zr259       O262   2.442   1_556  S
Zr259       O265   2.431   1_545  S
Zr259       O267   2.379   1_455  S
Zr259       O268   2.382   1_545  S
Zr259       O269   2.407   1_556  S
Zr259       O270   2.397       .  S
O260        H316   0.990   1_545  S
O260        H324   0.990       .  S
O261        C281   1.285   1_554  A
O262        C283   1.284       .  A
O263       Zr273   2.431       .  S
O263        C282   1.284   1_545  A
O264       Zr272   2.430       .  S
O264        C283   1.286   1_655  A
O265        C282   1.284       .  A
O266       Zr274   2.440   1_455  S
O266        C281   1.283       .  A
O267       Zr272   2.400   1_556  S
O267       Zr274   2.374   1_545  S
O268       Zr273   2.394   1_565  S
O268       Zr274   2.375   1_455  S
O268        H303   0.966       .  S
O269       Zr272   2.403   1_455  S
O269       Zr289   2.393   1_554  S
O269        H306   0.967       .  S
O270       Zr273   2.394       .  S
O270       Zr289   2.384       .  S
Zr271       O296   2.437       .  S
Zr271       O290   2.461       .  S
Zr271       O298   2.449       .  S
Zr271       O286   2.432       .  S
Zr271       O277   2.409       .  S
Zr271       O278   2.413       .  S
Zr271       O279   2.381       .  S
Zr271       O280   2.380   1_655  S
Zr272       O291   2.436       .  S
Zr272       O284   2.436       .  S
Zr272       O285   2.448   1_554  S
Zr272       O278   2.398   1_554  S
Zr272       O279   2.392   1_554  S
Zr273       O275   2.433       .  S
Zr273       O297   2.438   1_545  S
Zr273       O299   2.438       .  S
Zr273       O277   2.396   1_455  S
Zr273       O280   2.394       .  S
Zr274       O300   2.435       .  S
Zr274       O301   2.436       .  S
Zr274       O276   2.439       .  S
Zr274       O277   2.411   1_565  S
Zr274       O278   2.405   1_565  S
O275        H312   0.990       .  S
O276        H307   0.990       .  S
O276        H321   0.990       .  S
O278        H304   0.966       .  S
O279       Zr289   2.380   1_655  S
O280       Zr289   2.389       .  S
O280        H305   0.964       .  S
C281        C537   1.490   1_556  S
C282        C564   1.474       .  S
C283        C557   1.484       .  S
O284        H320   0.990       .  S
O285        C287   1.289       .  A
O286        C287   1.282       .  A
C287        C517   1.497       .  S
O288       Zr289   2.439   1_554  S
O288        H317   0.990       .  S
Zr289       O292   2.437   1_556  S
Zr289       O293   2.439       .  S
Zr289       O294   2.411       .  S
O290        C295   1.289   1_655  A
O291        H308   0.990       .  S
O291        H323   0.990       .  S
O292        H309   0.990       .  S
O293        H313   0.990       .  S
O293        H322   0.990       .  S
O294        C295   1.278       .  A
C295        C584   1.476       .  S
O296        H315   0.990       .  S
O296        H319   0.989       .  S
O297        H311   0.990       .  S
O297        H318   0.990       .  S
O298        C302   1.285   1_655  A
O299        C302   1.286       .  A
O300        H310   0.990       .  S
O301        H314   0.990       .  S
C302        C507   1.491   1_455  S
N325        C329   1.375       .  A
N325        C326   1.373       .  A
N325        C857   1.451       .  S
C326        C327   1.380       .  A
C326        C487   1.496       .  S
C327        C328   1.364       .  A
C327        H330   1.083       .  S
C328        C329   1.384       .  A
C328        H331   1.082       .  S
C329        C697   1.504       .  S
N332        C336   1.372       .  A
N332        C333   1.370       .  A
N332        C887   1.452       .  S
C333        C334   1.382       .  A
C333        C474   1.495       .  S
C334        C335   1.370       .  A
C334        H337   1.082       .  S
C335        C336   1.382       .  A
C335        H338   1.082       .  S
C336        C717   1.498       .  S
N339        C343   1.375   1_655  A
N339        C340   1.364   1_655  A
N339        C647   1.448       .  S
C340        C341   1.379       .  A
C340        C464   1.487   1_455  S
C341        C342   1.367       .  A
C341        H344   1.082       .  S
C342        C343   1.385       .  A
C342        H345   1.081       .  S
C343        C497   1.506       .  S
N346        C350   1.368       .  A
N346        C347   1.368       .  A
N346        C594   1.454       .  S
C347        C348   1.381       .  A
C347        C454   1.489       .  S
C348        C349   1.367       .  A
C348        H351   1.082       .  S
C349        C350   1.381       .  A
C349        H352   1.082       .  S
C350        C547   1.483       .  S
N353        C357   1.368       .  A
N353        C354   1.364       .  A
N353        C577   1.439       .  S
C354        C355   1.379       .  A
C354        C444   1.492       .  S
C355        C356   1.374       .  A
C355        H358   1.082       .  S
C356        C357   1.386       .  A
C356        H359   1.082       .  S
C357        C837   1.505       .  S
N360        C364   1.375       .  A
N360        C361   1.375       .  A
N360        C524   1.452       .  S
C361        C362   1.378       .  A
C361        C434   1.499       .  S
C362        C363   1.367       .  A
C362        H365   1.082       .  S
C363        C364   1.384       .  A
C363        H366   1.083       .  S
C364        C774   1.505       .  S
Zr367       O368   2.440       .  S
Zr367       O369   2.456       .  S
Zr367       O370   2.445       .  S
Zr367       O373   2.467       .  S
Zr367       O375   2.386       .  S
Zr367       O376   2.384   1_655  S
Zr367       O377   2.418       .  S
Zr367       O378   2.404   1_655  S
O368        H424   0.990       .  S
O368        H432   0.990       .  S
O369        C389   1.288       .  A
O370        C391   1.288       .  A
O371       Zr381   2.419       .  S
O371        C390   1.284       .  A
O372       Zr380   2.470       .  S
O372        C391   1.290       .  A
O373        C390   1.290   1_655  A
O374       Zr382   2.439       .  S
O374        C389   1.285   1_455  A
O375       Zr380   2.397       .  S
O375       Zr382   2.376   1_655  S
O376       Zr381   2.393       .  S
O376       Zr382   2.377       .  S
O376        H411   0.967       .  S
O377       Zr380   2.400       .  S
O377       Zr397   2.393       .  S
O377        H414   0.966       .  S
O378       Zr381   2.386       .  S
O378       Zr397   2.400   1_455  S
Zr379       O404   2.440       .  S
Zr379       O398   2.489       .  S
Zr379       O406   2.477       .  S
Zr379       O394   2.458       .  S
Zr379       O385   2.413       .  S
Zr379       O386   2.429       .  S
Zr379       O387   2.393       .  S
Zr379       O388   2.379       .  S
Zr380       O399   2.436       .  S
Zr380       O392   2.437       .  S
Zr380       O393   2.443   1_655  S
Zr380       O386   2.409   1_655  S
Zr380       O387   2.405   1_655  S
Zr381       O383   2.434       .  S
Zr381       O405   2.437       .  S
Zr381       O407   2.428       .  S
Zr381       O385   2.387       .  S
Zr381       O388   2.388       .  S
Zr382       O408   2.436       .  S
Zr382       O409   2.435       .  S
Zr382       O384   2.438       .  S
Zr382       O385   2.408       .  S
Zr382       O386   2.398       .  S
O383        H420   0.990       .  S
O384        H415   0.990       .  S
O384        H429   0.990       .  S
O386        H412   0.965       .  S
O387       Zr397   2.376   1_455  S
O388       Zr397   2.382   1_455  S
O388        H413   0.966       .  S
C389        C447   1.498       .  S
C390        C467   1.501   1_455  S
C391        C477   1.513       .  S
O392        H428   0.990       .  S
O393        C395   1.288       .  A
O394        C395   1.288       .  A
C395        C457   1.498       .  S
O396       Zr397   2.439       .  S
O396        H425   0.990       .  S
Zr397       O400   2.437       .  S
Zr397       O401   2.437       .  S
Zr397       O402   2.427   1_655  S
O398        C403   1.295       .  A
O399        H416   0.990       .  S
O399        H431   0.990       .  S
O400        H417   0.990       .  S
O401        H421   0.990   1_655  S
O401        H430   0.990       .  S
O402        C403   1.283       .  A
C403        C437   1.506       .  S
O404        H423   0.990       .  S
O404        H427   0.990       .  S
O405        H419   0.990       .  S
O405        H426   0.990       .  S
O406        C410   1.292       .  A
O407        C410   1.283       .  A
O408        H418   0.989       .  S
O409        H422   0.990       .  S
C410        C484   1.503       .  S
C433        C434   1.409       .  A
C433        C438   1.415       .  A
C433        H440   1.083       .  S
C434        C435   1.411       .  A
C435        C436   1.406       .  A
C435       Br442   1.920       .  S
C436        C437   1.409       .  A
C436        H441   1.083       .  S
C437        C438   1.415       .  A
C438       Br439   1.919       .  S
C443        C444   1.406       .  A
C443        C448   1.408       .  A
C443        H450   1.083       .  S
C444        C445   1.409       .  A
C445        C446   1.406   1_655  A
C445       Br452   1.915   1_655  S
C446        C447   1.408   1_455  A
C446        H451   1.083       .  S
C447        C448   1.415       .  A
C448       Br449   1.920       .  S
C453        C454   1.405       .  A
C453        C458   1.403       .  A
C453        H460   1.084       .  S
C454        C455   1.407       .  A
C455        C456   1.405       .  A
C455       Br462   1.915       .  S
C456        C457   1.411       .  A
C456        H461   1.083       .  S
C457        C458   1.416       .  A
C458       Br459   1.922       .  S
C463        C464   1.404       .  A
C463        C468   1.411       .  A
C463        H470   1.083       .  S
C464        C465   1.407   1_655  A
C465        C466   1.397       .  A
C465       Br472   1.922       .  S
C466        C467   1.410   1_455  A
C466        H471   1.083       .  S
C467        C468   1.419       .  A
C468       Br469   1.918       .  S
C473        C474   1.404       .  A
C473        C478   1.413       .  A
C473        H480   1.083       .  S
C474        C475   1.411       .  A
C475        C476   1.399       .  A
C475       Br482   1.923       .  S
C476        C477   1.411       .  A
C476        H481   1.082       .  S
C477        C478   1.424       .  A
C478       Br479   1.919       .  S
C483        C484   1.413       .  A
C483        C488   1.417       .  A
C483        H490   1.083       .  S
C484        C485   1.416       .  A
C485        C486   1.397       .  A
C485       Br492   1.921       .  S
C486        C487   1.403       .  A
C486        H491   1.084       .  S
C487        C488   1.412       .  A
C488       Br489   1.915       .  S
C493        C494   1.399       .  A
C493        C498   1.401   1_545  A
C493        H500   1.079       .  S
C494        C495   1.402   1_455  A
C495        C496   1.402   1_545  A
C495       Br502   1.917       .  S
C496        C497   1.409   1_655  A
C496        H501   1.079       .  S
C497        C498   1.423       .  A
C498       Br499   1.922       .  S
C503        C504   1.401       .  A
C503        C508   1.408       .  A
C503        H510   1.083       .  S
C504        C505   1.409   1_655  A
C505        C506   1.397       .  A
C505       Br512   1.921       .  S
C506        C507   1.404   1_455  A
C506        H511   1.083       .  S
C507        C508   1.418       .  A
C508       Br509   1.916       .  S
C513        C514   1.399       .  A
C513        C518   1.404       .  A
C513        H520   1.084       .  S
C514        C515   1.406       .  A
C515        C516   1.397       .  A
C515       Br522   1.920   1_556  S
C516        C517   1.408       .  A
C516        H521   1.083   1_556  S
C517        C518   1.423       .  A
C518       Br519   1.919       .  S
C523        C524   1.407       .  A
C523        C528   1.406       .  A
C523        H530   1.080       .  S
C524        C525   1.410       .  A
C525        C526   1.402       .  A
C525       Br532   1.918       .  S
C526        C527   1.411       .  A
C526        H531   1.083       .  S
C527        C528   1.413       .  A
C528       Br529   1.914       .  S
C533        C534   1.407       .  A
C533        C538   1.398       .  A
C533        H540   1.084       .  S
C534        C535   1.411   1_554  A
C535        C536   1.410       .  A
C535       Br542   1.916       .  S
C536        C537   1.410   1_556  A
C536        H541   1.083       .  S
C537        C538   1.411       .  A
C538       Br539   1.924       .  S
C543        C544   1.407       .  A
C543        C548   1.403       .  A
C543        H550   1.083       .  S
C544        C545   1.406   1_455  A
C545        C546   1.396       .  A
C545       Br552   1.910       .  S
C546        C547   1.406   1_655  A
C546        H551   1.084       .  S
C547        C548   1.407       .  A
C548       Br549   1.917       .  S
C553        C554   1.399       .  A
C553        C558   1.403   1_565  A
C553        H560   1.083       .  S
C554        C555   1.406   1_455  A
C555        C556   1.392   1_565  A
C555       Br562   1.917       .  S
C556        C557   1.404   1_655  A
C556        H561   1.084       .  S
C557        C558   1.417       .  A
C558       Br559   1.915       .  S
C563        C564   1.406   1_545  A
C563        C568   1.405   1_545  A
C563        H570   1.083       .  S
C564        C565   1.407       .  A
C565        C566   1.394       .  A
C565       Br572   1.924       .  S
C566        C567   1.404       .  A
C566        H571   1.083       .  S
C567        C568   1.410       .  A
C568       Br569   1.919   1_565  S
C573        C574   1.413       .  A
C573        C578   1.405       .  A
C573        H580   1.073   1_655  S
C574        C575   1.425       .  A
C575        C576   1.397       .  A
C575       Br582   1.927       .  S
C576        C577   1.394       .  A
C576        H581   1.083       .  S
C577        C578   1.405       .  A
C578       Br579   1.915   1_655  S
C583        C584   1.405       .  A
C583        C588   1.403       .  A
C583        H590   1.084       .  S
C584        C585   1.406   1_455  A
C585        C586   1.399       .  A
C585       Br592   1.916       .  S
C586        C587   1.405       .  A
C586        H591   1.084       .  S
C587        C588   1.408   1_655  A
C588       Br589   1.916       .  S
C593        C594   1.404       .  A
C593        C598   1.402       .  A
C593        H600   1.082       .  S
C594        C595   1.414       .  A
C595        C596   1.401       .  A
C595       Br602   1.917       .  S
C596        C597   1.407       .  A
C596        H601   1.081       .  S
C597        C598   1.417       .  A
C598       Br599   1.913       .  S
C603        C604   1.403       .  A
C603        C608   1.408       .  A
C603        H610   1.083       .  S
C604        C605   1.410       .  A
C605        C606   1.396       .  A
C605       Br612   1.922       .  S
C606        C607   1.407       .  A
C606        H611   1.074       .  S
C607        C608   1.421       .  A
C608       Br609   1.920       .  S
C613        C614   1.409       .  A
C613        C618   1.403       .  A
C613        H620   1.083       .  S
C614        C615   1.410       .  A
C615        C616   1.411       .  A
C615       Br622   1.918       .  S
C616        C617   1.410       .  A
C616        H621   1.083       .  S
C617        C618   1.409       .  A
C618       Br619   1.921       .  S
C623        C624   1.410       .  A
C623        C628   1.415       .  A
C623        H630   1.083       .  S
C624        C625   1.414   1_556  A
C625        C626   1.396       .  A
C625       Br632   1.917       .  S
C626        C627   1.403       .  A
C626        H631   1.084       .  S
C627        C628   1.415   1_554  A
C628       Br629   1.915   1_565  S
C633        C634   1.406       .  A
C633        C638   1.414       .  A
C633        H640   1.083       .  S
C634        C635   1.413       .  A
C635        C636   1.404       .  A
C635       Br642   1.918       .  S
C636        C637   1.403       .  A
C636        H641   1.083       .  S
C637        C638   1.415       .  A
C638       Br639   1.917       .  S
C643        C644   1.409       .  A
C643        C648   1.403       .  A
C643        H650   1.082       .  S
C644        C645   1.408       .  A
C645        C646   1.400       .  A
C645       Br652   1.910       .  S
C646        C647   1.405       .  A
C646        H651   1.081       .  S
C647        C648   1.409       .  A
C648       Br649   1.916       .  S
C653        C654   1.398       .  A
C653        C658   1.391       .  A
C653        H660   1.084       .  S
C654        C655   1.415   1_565  A
C655        C656   1.403   1_545  A
C655       Br662   1.907       .  S
C656        C657   1.399       .  A
C656        H661   1.084   1_665  S
C657        C658   1.410       .  A
C658       Br659   1.920       .  S
C663        C664   1.405       .  A
C663        C668   1.406       .  A
C663        H670   1.084       .  S
C664        C665   1.410   1_565  A
C665        C666   1.401       .  A
C665       Br672   1.919       .  S
C666        C667   1.403   1_545  A
C666        H671   1.084       .  S
C667        C668   1.409       .  A
C668       Br669   1.917       .  S
C673        C674   1.404       .  A
C673        C678   1.403       .  A
C673        H680   1.084       .  S
C674        C675   1.411       .  A
C675        C676   1.411       .  A
C675       Br682   1.914       .  S
C676        C677   1.408       .  A
C676        H681   1.082       .  S
C677        C678   1.415       .  A
C678       Br679   1.921       .  S
C683        C684   1.411       .  A
C683        C688   1.403       .  A
C683        H690   1.084       .  S
C684        C685   1.416   1_545  A
C685        C686   1.415   1_565  A
C685       Br692   1.918       .  S
C686        C687   1.410       .  A
C686        H691   1.083   1_545  S
C687        C688   1.408       .  A
C688       Br689   1.918       .  S
C693        C694   1.411       .  A
C693        C698   1.405       .  A
C693        H700   1.082       .  S
C694        C695   1.410       .  A
C695        C696   1.401       .  A
C695       Br702   1.918       .  S
C696        C697   1.412       .  A
C696        H701   1.083       .  S
C697        C698   1.412       .  A
C698       Br699   1.915       .  S
C703        C704   1.401       .  A
C703        C708   1.406       .  A
C703        H710   1.083       .  S
C704        C705   1.410       .  A
C705        C706   1.398       .  A
C705       Br712   1.922       .  S
C706        C707   1.409       .  A
C706        H711   1.083       .  S
C707        C708   1.425       .  A
C708       Br709   1.922       .  S
C713        C714   1.409       .  A
C713        C718   1.408       .  A
C713        H720   1.083       .  S
C714        C715   1.416       .  A
C715        C716   1.404       .  A
C715       Br722   1.914       .  S
C716        C717   1.406       .  A
C716        H721   1.084       .  S
C717        C718   1.406       .  A
C718       Br719   1.905       .  S
C723        C724   1.412       .  A
C723        C728   1.416       .  A
C723        H730   1.083       .  S
C724        C725   1.423       .  A
C725        C726   1.391       .  A
C725       Br732   1.925       .  S
C726        C727   1.397       .  A
C726        H731   1.085       .  S
C727        C728   1.411       .  A
C728       Br729   1.915       .  S
C733        C734   1.396       .  A
C733        C738   1.398       .  A
C733        H740   1.083       .  S
C734        C735   1.412       .  A
C735        C736   1.397       .  A
C735       Br742   1.917       .  S
C736        C737   1.400       .  A
C736        H741   1.079       .  S
C737        C738   1.418       .  A
C738       Br739   1.921       .  S
C743        C744   1.397       .  A
C743        C748   1.398       .  A
C743        H750   1.083       .  S
C744        C745   1.409   1_554  A
C745        C746   1.410       .  A
C745       Br752   1.912       .  S
C746        C747   1.407       .  A
C746        H751   1.078       .  S
C747        C748   1.420   1_556  A
C748       Br749   1.925       .  S
C753        C754   1.399   1_556  A
C753        C758   1.400       .  A
C753        H760   1.083       .  S
C754        C755   1.410       .  A
C755        C756   1.398       .  A
C755       Br762   1.920       .  S
C756        C757   1.402       .  A
C756        H761   1.084       .  S
C757        C758   1.416   1_554  A
C758       Br759   1.919       .  S
C763        C764   1.400       .  A
C763        C768   1.390       .  A
C763        H770   1.083       .  S
C764        C765   1.414       .  A
C765        C766   1.412       .  A
C765       Br772   1.914       .  S
C766        C767   1.409       .  A
C766        H771   1.082       .  S
C767        C768   1.417       .  A
C768       Br769   1.925       .  S
C773        C774   1.405       .  A
C773        C778   1.399   1_554  A
C773        H780   1.084       .  S
C774        C775   1.412   1_554  A
C775        C776   1.416       .  A
C775       Br782   1.914       .  S
C776        C777   1.415       .  A
C776        H781   1.082       .  S
C777        C778   1.414       .  A
C778       Br779   1.914       .  S
C783        C784   1.397       .  A
C783        C788   1.400       .  A
C783        H790   1.084       .  S
C784        C785   1.413       .  A
C785        C786   1.413       .  A
C785       Br792   1.916       .  S
C786        C787   1.407       .  A
C786        H791   1.083       .  S
C787        C788   1.422       .  A
C788       Br789   1.925       .  S
C793        C794   1.406       .  A
C793        C798   1.392       .  A
C793        H800   1.084       .  S
C794        C795   1.413       .  A
C795        C796   1.405   1_565  A
C795       Br802   1.911   1_565  S
C796        C797   1.401       .  A
C796        H801   1.082       .  S
C797        C798   1.404   1_545  A
C798       Br799   1.917       .  S
C803        C804   1.402       .  A
C803        C808   1.390       .  A
C803        H810   1.083       .  S
C804        C805   1.410       .  A
C805        C806   1.411       .  A
C805       Br812   1.912       .  S
C806        C807   1.406       .  A
C806        H811   1.083       .  S
C807        C808   1.411       .  A
C808       Br809   1.924       .  S
C813        C814   1.405       .  A
C813        C818   1.400       .  A
C813        H820   1.084       .  S
C814        C815   1.403       .  A
C815        C816   1.398       .  A
C815       Br822   1.916       .  S
C816        C817   1.406       .  A
C816        H821   1.084       .  S
C817        C818   1.409       .  A
C818       Br819   1.920       .  S
C823        C824   1.406   1_554  A
C823        C828   1.399       .  A
C823        H830   1.084       .  S
C824        C825   1.409       .  A
C825        C826   1.408   1_655  A
C825       Br832   1.915       .  S
C826        C827   1.409   1_556  A
C826        H831   1.083       .  S
C827        C828   1.413   1_455  A
C828       Br829   1.918       .  S
C833        C834   1.403       .  A
C833        C838   1.403       .  A
C833        H840   1.082       .  S
C834        C835   1.413       .  A
C835        C836   1.402       .  A
C835       Br842   1.916       .  S
C836        C837   1.406       .  A
C836        H841   1.076       .  S
C837        C838   1.418       .  A
C838       Br839   1.921       .  S
C843        C844   1.407       .  A
C843        C848   1.412       .  A
C843        H850   1.083       .  S
C844        C845   1.409       .  A
C845        C846   1.400       .  A
C845       Br852   1.920       .  S
C846        C847   1.406       .  A
C846        H851   1.084       .  S
C847        C848   1.413       .  A
C848       Br849   1.917       .  S
C853        C854   1.405       .  A
C853        C858   1.399       .  A
C853        H860   1.084       .  S
C854        C855   1.409       .  A
C855        C856   1.408       .  A
C855       Br862   1.911       .  S
C856        C857   1.410       .  A
C856        H861   1.083       .  S
C857        C858   1.413       .  A
C858       Br859   1.915       .  S
C863        C864   1.413       .  A
C863        C868   1.396       .  A
C863        H870   1.083       .  S
C864        C865   1.416       .  A
C865        C866   1.407       .  A
C865       Br872   1.912       .  S
C866        C867   1.406       .  A
C866        H871   1.081       .  S
C867        C868   1.405       .  A
C868       Br869   1.918       .  S
C873        C874   1.415       .  A
C873        C878   1.409       .  A
C873        H880   1.083       .  S
C874        C875   1.420       .  A
C875        C876   1.404       .  A
C875       Br882   1.912       .  S
C876        C877   1.399       .  A
C876        H881   1.084       .  S
C877        C878   1.409       .  A
C878       Br879   1.918       .  S
C883        C884   1.405       .  A
C883        C888   1.401       .  A
C883        H890   1.080       .  S
C884        C885   1.420       .  A
C885        C886   1.404       .  A
C885       Br892   1.921       .  S
C886        C887   1.403       .  A
C886        H891   1.082       .  S
C887        C888   1.414       .  A
C888       Br889   1.914       .  S
C893        C894   1.409       .  A
C893        C898   1.407       .  A
C893        H900   1.083       .  S
C894        C895   1.408       .  A
C895        C896   1.397       .  A
C895       Br902   1.915       .  S
C896        C897   1.409       .  A
C896        H901   1.084       .  S
C897        C898   1.411       .  A
C898       Br899   1.912       .  S
C903        C904   1.407       .  A
C903        C908   1.415       .  A
C903        H910   1.083       .  S
C904        C905   1.417       .  A
C905        C906   1.399       .  A
C905       Br912   1.923       .  S
C906        C907   1.403       .  A
C906        H911   1.084       .  S
C907        C908   1.416       .  A
C908       Br909   1.916       .  S
