geometry optimzed in LAMMPS
_audit_creation_date              2020-12-01 
_audit_creation_method            'lammps2cif' 
_symmetry_space_group_name_H-M    'P1' 
_symmetry_Int_Tables_number       1 
_symmetry_cell_setting            triclinic 
loop_ 
_symmetry_equiv_pos_as_xyz 
  x,y,z 
_cell_length_a                    36.22353739 
_cell_length_b                    36.22095018725498 
_cell_length_c                    29.55701839774451 
_cell_angle_alpha                 89.93425806861698 
_cell_angle_beta                  90.13106163255424 
_cell_angle_gamma                 90.0125380821486 
loop_ 
_atom_site_label 
_atom_site_type_symbol 
_atom_site_fract_x 
_atom_site_fract_y 
_atom_site_fract_z 
_atom_site_charge 
C1          C  0.09539255  0.00381635  0.38082128     0.80000
N2          N  0.11492913  0.02427127  0.41091845    -0.78300
C3          C  0.15226277  0.02203930  0.41296543     0.82400
N4          N  0.17103792  0.33301357  0.38486387    -0.78300
C5          C  0.15195445  0.31234160  0.35447460     0.82500
N6          N  0.11457108  0.31476098  0.35260548    -0.80000
C7          C  0.81641407  0.00341238  0.37022296     0.80000
N8          N  0.79755161  0.31297906  0.39655868    -0.78300
C9          C  0.76018894  0.31141167  0.39430459     0.82400
N10         N  0.74135071  0.00034637  0.36496309    -0.78300
C11         C  0.76044770  0.02294629  0.33683623     0.82500
N12         N  0.79783580  0.02464568  0.33980753    -0.80000
O13         O  0.20292255  0.29976068  0.21149079    -0.73200
O14         O  0.25456281  0.23935810  0.30625319    -0.74200
O15         O  0.25412750  0.24041252  0.21169284    -0.62800
O16         O  0.20339558  0.29897482  0.30790561    -0.71200
O17         O  0.15603757  0.25998481  0.30673442    -0.70800
O18         O  0.20730200  0.20077677  0.21066707    -0.62000
O19         O  0.20740010  0.20014547  0.30726265    -0.74500
O20         O  0.15597963  0.26026690  0.21190786    -0.73300
Cu21       Cu  0.23029945  0.27106849  0.25937692     1.04600
Cu22       Cu  0.18006167  0.22880935  0.25915832     1.04300
C23         C  0.17120474  0.28966132  0.19708447     0.93000
C24         C  0.23937166  0.20997622  0.32115342     0.92100
C25         C  0.23898137  0.21114641  0.19648700     0.84300
C26         C  0.17153738  0.28913349  0.32190315     0.90600
C27         C  0.31641016  0.16416154  0.38116894     0.80000
N28         N  0.29704902  0.18637436  0.35266197    -0.78300
C29         C  0.25958610  0.18681800  0.35347212     0.82400
N30         N  0.24123325  0.16526294  0.38354005    -0.78300
C31         C  0.26032529  0.14306834  0.41235646     0.82500
N32         N  0.29781296  0.14223305  0.41069131    -0.80000
C33         C  0.59576756  0.16413643  0.36657135     0.80000
N34         N  0.61456794  0.18689960  0.39501212    -0.78300
C35         C  0.65201725  0.18835563  0.39432212     0.82400
N36         N  0.67108204  0.16736042  0.36438081    -0.78300
C37         C  0.65264943  0.14485639  0.33543564     0.82500
N38         N  0.61521926  0.14304958  0.33705970    -0.80000
O39         O  0.70858205  0.29882790  0.03764850    -0.73200
O40         O  0.65634495  0.24053889  0.44218645    -0.74200
O41         O  0.65652768  0.24023491  0.03655623    -0.62800
O42         O  0.70825428  0.29930630  0.44046101    -0.71200
O43         O  0.75509560  0.25970086  0.44256800    -0.70800
O44         O  0.70295517  0.20015739  0.03694709    -0.62000
O45         O  0.70324921  0.20100868  0.44189345    -0.74500
O46         O  0.75497265  0.25869241  0.03697190    -0.73300
Cu47       Cu  0.68090321  0.27117705  0.98923013     1.04600
Cu48       Cu  0.73071629  0.22842601  0.98908955     1.04300
C49         C  0.74003587  0.28802157  0.05220873     0.93000
C50         C  0.67159949  0.21118661  0.42737333     0.92100
C51         C  0.67149826  0.21076645  0.05154908     0.84300
C52         C  0.74002663  0.28886554  0.42686731     0.90600
C53         C  0.31593658  0.16706065  0.13520643     0.80000
N54         N  0.29650918  0.18916973  0.16355330    -0.78300
C55         C  0.25903671  0.18871033  0.16357965     0.82400
N56         N  0.24060235  0.16660551  0.13418867    -0.78300
C57         C  0.25966241  0.14478355  0.10515230     0.82500
N58         N  0.29718241  0.14487522  0.10599572    -0.80000
C59         C  0.59572871  0.16885827  0.11786583     0.80000
N60         N  0.61451228  0.19008819  0.08775317    -0.78300
C61         C  0.65195076  0.18865119  0.08538675     0.82400
N62         N  0.67101607  0.16636288  0.11404148    -0.78300
C63         C  0.65259985  0.14521951  0.14444759     0.82500
N64         N  0.61519118  0.14633944  0.14594119    -0.80000
O65         O  0.70451726  0.13268141  0.19108604    -0.73200
O66         O  0.75610710  0.07416155  0.28742573    -0.74200
O67         O  0.75595408  0.07328742  0.19244820    -0.62800
O68         O  0.70428244  0.13318192  0.28776593    -0.71200
O69         O  0.65774914  0.09321641  0.28716884    -0.70800
O70         O  0.70878996  0.03405502  0.19175075    -0.62000
O71         O  0.70943101  0.03435413  0.28824911    -0.74500
O72         O  0.65750703  0.09327043  0.19251334    -0.73300
Cu73       Cu  0.73182920  0.10480980  0.23964290     1.04600
Cu74       Cu  0.68183252  0.06225701  0.23991097     1.04300
C75         C  0.67269730  0.12248777  0.17715167     0.93000
C76         C  0.74098391  0.04491348  0.30275335     0.92100
C77         C  0.74048372  0.04406501  0.17741911     0.84300
C78         C  0.67269177  0.12266672  0.30214592     0.90600
O79         O  0.15728845  0.07345078  0.46152942    -0.73200
O80         O  0.20836537  0.13255500  0.05735375    -0.74200
O81         O  0.20923521  0.13193568  0.46066400    -0.62800
O82         O  0.15610963  0.07378034  0.05591016    -0.71200
O83         O  0.20270451  0.03392282  0.05737473    -0.70800
O84         O  0.25574565  0.09197648  0.46213836    -0.62000
O85         O  0.25501961  0.09275129  0.05696837    -0.74500
O86         O  0.20364542  0.03329248  0.46132388    -0.73300
Cu87       Cu  0.18110869  0.10467198  0.00881165     1.04600
Cu88       Cu  0.23074760  0.06174035  0.00933296     1.04300
C89         C  0.17221007  0.04399375  0.44659374     0.93000
C90         C  0.23997001  0.12217652  0.07186720     0.92100
C91         C  0.24074646  0.12119494  0.44642344     0.84300
C92         C  0.17093934  0.04432116  0.07117823     0.90600
C93         C  0.09411294  0.99867553  0.13180610     0.80000
N94         N  0.11394677  0.31216199  0.16360006    -0.78300
C95         C  0.15138289  0.31251671  0.16417180     0.82400
N96         N  0.17003343  0.33459808  0.13496514    -0.78300
C97         C  0.15077317  0.02164372  0.10395134     0.82500
N98         N  0.11326712  0.02122963  0.10345685    -0.80000
C99         C  0.81566158  0.99645957  0.11680939     0.80000
N100        N  0.79726608  0.01942420  0.14521441    -0.78300
C101        C  0.75984598  0.02111351  0.14440362     0.82400
N102        N  0.74061273  0.00031289  0.11425967    -0.78300
C103        C  0.75979305  0.30985475  0.08603381     0.82500
N104        N  0.79718607  0.30792285  0.08843759    -0.80000
C105        C  0.91424083  0.02846314  0.13001078    -0.02300
C106        C  0.93436407  0.99634334  0.11978359     0.06300
C107        C  0.91670013  0.29817236  0.11200943    -0.08200
C108        C  0.87808963  0.29671315  0.10950716     0.03800
C109        C  0.85654335  0.99528205  0.11750784    -0.15500
C110        C  0.87570896  0.02765734  0.12910809    -0.08800
C111        C  0.97511032  0.99607811  0.12185452     0.04700
C112        C  0.99239588  0.98088823  0.15989502    -0.09900
C113        C  0.03087357  0.98146176  0.16434335    -0.00300
C114        C  0.05293586  0.99750027  0.12977129    -0.00400
C115        C  0.03505085  0.35091991  0.09757585    -0.13500
C116        C  0.99656311  0.34998821  0.09375097     0.00000
C117        C  0.04629358  0.96607010  0.20532778     0.39400
C118        C  0.97915036  0.36769753  0.05542148     0.36000
C119        C  0.93261447  0.06252151  0.14170107     0.35700
C120        C  0.86113117  0.26202982  0.09726296     0.36500
N121        N  0.05828410  0.95355257  0.23827375    -0.44300
N122        N  0.96503208  0.38179587  0.02478012    -0.44800
N123        N  0.84773198  0.23415438  0.08739819    -0.42100
N124        N  0.94737796  0.08984105  0.15089502    -0.43600
H125        H  0.86056628  0.05265939  0.13696901     0.12600
H126        H  0.93286741  0.27383504  0.10403626     0.09100
H127        H  0.97561445  0.96899080  0.18658654     0.10100
H128        H  0.05068774  0.36512391  0.07161576     0.16000
C129        C  0.41440452  0.15428995  0.09443430    -0.02300
C130        C  0.43540082  0.16761918  0.13111772     0.06300
C131        C  0.41718927  0.18043989  0.16983133    -0.08200
C132        C  0.37851399  0.18046739  0.17234082     0.03800
C133        C  0.35717673  0.16747507  0.13521726    -0.15500
C134        C  0.37581626  0.15432058  0.09670925    -0.08800
C135        C  0.47638339  0.16874611  0.12921279     0.04700
C136        C  0.49346969  0.19172671  0.09736087    -0.09900
C137        C  0.53194967  0.19243878  0.09261055    -0.00300
C138        C  0.55446133  0.16996033  0.12086982    -0.00400
C139        C  0.53689699  0.14735091  0.15325543    -0.13500
C140        C  0.49842588  0.14649015  0.15747541     0.00000
C141        C  0.54684472  0.21613495  0.05782595     0.39400
C142        C  0.48219618  0.12146380  0.18989847     0.36000
C143        C  0.43195489  0.13968681  0.05442757     0.35700
C144        C  0.36193966  0.19317408  0.21393122     0.36500
N145        N  0.55840678  0.23513535  0.02970738    -0.44300
N146        N  0.46934236  0.10125739  0.21581166    -0.44800
N147        N  0.34880652  0.20339197  0.24731909    -0.42100
N148        N  0.44615683  0.12795245  0.02249554    -0.43600
H149        H  0.36025440  0.14417027  0.06791536     0.12600
H150        H  0.43333041  0.19056677  0.19819466     0.09100
H151        H  0.47646681  0.20893450  0.07562352     0.10100
H152        H  0.55313187  0.12970964  0.17525397     0.16000
C153        C  0.41493779  0.12911654  0.38874302    -0.02300
C154        C  0.43547439  0.16103868  0.37828462     0.06300
C155        C  0.41687056  0.19416492  0.36932484    -0.08200
C156        C  0.37828212  0.19592104  0.37040970     0.03800
C157        C  0.35743567  0.16382374  0.38017634    -0.15500
C158        C  0.37626371  0.13071415  0.38965290    -0.08800
C159        C  0.47642836  0.16069740  0.37650895     0.04700
C160        C  0.49406221  0.14166643  0.34146000    -0.09900
C161        C  0.53262039  0.14205571  0.33728920    -0.00300
C162        C  0.55450502  0.16211181  0.36883684    -0.00400
C163        C  0.53634332  0.18084886  0.40420243    -0.13500
C164        C  0.49785883  0.18017880  0.40827057     0.00000
C165        C  0.54831851  0.12178894  0.29993890     0.39400
C166        C  0.48095397  0.19905821  0.44593124     0.36000
C167        C  0.43304187  0.09474352  0.39976173     0.35700
C168        C  0.36109954  0.23146270  0.36353096     0.36500
N169        N  0.56068263  0.10535262  0.27002644    -0.44300
N170        N  0.46735786  0.21406531  0.47615193    -0.44800
N171        N  0.34740081  0.26000891  0.35823040    -0.42100
N172        N  0.44765296  0.06727720  0.40874119    -0.43600
H173        H  0.36074973  0.10592636  0.39752425     0.12600
H174        H  0.43266578  0.21884617  0.36173277     0.09100
H175        H  0.47750538  0.12675654  0.31691108     0.10100
H176        H  0.55213878  0.19602042  0.42920785     0.16000
C177        C  0.99713930  0.31352987  0.34978915    -0.02300
C178        C  0.97667423  0.34046124  0.37305265     0.06300
C179        C  0.99486793  0.03329480  0.39917899    -0.08200
C180        C  0.03345565  0.03329574  0.40214779     0.03800
C181        C  0.05425068  0.00598579  0.37888053    -0.15500
C182        C  0.03568884  0.31374086  0.35226854    -0.08800
C183        C  0.93541282  0.00708870  0.37258635     0.04700
C184        C  0.91661264  0.32960934  0.41091408    -0.09900
C185        C  0.87799055  0.32795642  0.41111767    -0.00300
C186        C  0.85742676  0.00486179  0.37252775    -0.00400
C187        C  0.87696448  0.01668444  0.33401624    -0.13500
C188        C  0.91555977  0.01774101  0.33371475     0.00000
C189        C  0.86024694  0.31657967  0.45259505     0.39400
C190        C  0.93420549  0.02995439  0.29322234     0.36000
C191        C  0.97909018  0.28457216  0.32449679     0.35700
C192        C  0.05033271  0.06186008  0.42927488     0.36500
N193        N  0.84629602  0.30731009  0.48592439    -0.44300
N194        N  0.94907025  0.03968634  0.26070555    -0.44800
N195        N  0.06359812  0.08478198  0.45120336    -0.42100
N196        N  0.96460636  0.26128814  0.30439686    -0.43600
H197        H  0.05077793  0.29241714  0.33448927     0.12600
H198        H  0.97908907  0.05410585  0.41707208     0.09100
H199        H  0.93196858  0.32189494  0.44104810     0.10100
H200        H  0.86211486  0.02462837  0.30361836     0.16000
C201        C  0.09549470  0.00524389  0.87903360     0.80000
N202        N  0.11496659  0.02558567  0.90930162    -0.78300
C203        C  0.15223984  0.02291634  0.91195562     0.82400
N204        N  0.17004471  0.33340157  0.88472169    -0.78300
C205        C  0.15130622  0.31285269  0.85390688     0.82500
N206        N  0.11403018  0.31568475  0.85096148    -0.80000
C207        C  0.81639983  0.00426847  0.86951810     0.80000
N208        N  0.79769009  0.31415176  0.89642938    -0.78300
C209        C  0.76022003  0.31246510  0.89489556     0.82400
N210        N  0.74134310  0.00067907  0.86392791    -0.78300
C211        C  0.76036993  0.02329604  0.83575946     0.82500
N212        N  0.79774126  0.02527317  0.83892222    -0.80000
O213        O  0.20253496  0.29980828  0.71150941    -0.73200
O214        O  0.25411955  0.23987484  0.80642382    -0.74200
O215        O  0.25371577  0.24050740  0.71191726    -0.62800
O216        O  0.20298468  0.29934210  0.80785068    -0.71200
O217        O  0.15566540  0.26029177  0.80669525    -0.70800
O218        O  0.20690308  0.20085705  0.71089091    -0.62000
O219        O  0.20702567  0.20056466  0.80749978    -0.74500
O220        O  0.15554021  0.26037013  0.71187733    -0.73300
Cu221      Cu  0.22988225  0.27132107  0.75945809     1.04600
Cu222      Cu  0.17966019  0.22902768  0.75927146     1.04300
C223        C  0.17084765  0.28971082  0.69701841     0.93000
C224        C  0.23895007  0.21052947  0.82141008     0.92100
C225        C  0.23859880  0.21120617  0.69675199     0.84300
C226        C  0.17111592  0.28949245  0.82177835     0.90600
C227        C  0.31609556  0.16490343  0.88116243     0.80000
N228        N  0.29665198  0.18711591  0.85277846    -0.78300
C229        C  0.25920557  0.18754375  0.85377110     0.82400
N230        N  0.24093611  0.16598898  0.88388716    -0.78300
C231        C  0.26010850  0.14380620  0.91261213     0.82500
N232        N  0.29759615  0.14295797  0.91077325    -0.80000
C233        C  0.59547583  0.16384117  0.86614484     0.80000
N234        N  0.61426417  0.18676749  0.89445491    -0.78300
C235        C  0.65172969  0.18845998  0.89344882     0.82400
N236        N  0.67075415  0.16753122  0.86345234    -0.78300
C237        C  0.65234808  0.14488760  0.83471570     0.82500
N238        N  0.61494674  0.14285855  0.83655100    -0.80000
O239        O  0.70839061  0.30064655  0.53694487    -0.73200
O240        O  0.65633412  0.24038079  0.94172761    -0.74200
O241        O  0.65625183  0.24205103  0.53710291    -0.62800
O242        O  0.70842933  0.29931894  0.94117858    -0.71200
O243        O  0.75539889  0.25988447  0.94227183    -0.70800
O244        O  0.70265553  0.20193926  0.53839216    -0.62000
O245        O  0.70331803  0.20096308  0.94041990    -0.74500
O246        O  0.75469534  0.26041360  0.53714533    -0.73300
Cu247      Cu  0.68072572  0.27212597  0.48910171     1.04600
Cu248      Cu  0.73046708  0.22927047  0.49001804     1.04300
C249        C  0.73985102  0.29002350  0.55171647     0.93000
C250        C  0.67151684  0.21117914  0.92641634     0.92100
C251        C  0.67119770  0.21278159  0.55268733     0.84300
C252        C  0.74028480  0.28931455  0.92731744     0.90600
C253        C  0.31582024  0.16717547  0.63597636     0.80000
N254        N  0.29621949  0.18922577  0.66419158    -0.78300
C255        C  0.25875967  0.18871634  0.66398184     0.82400
N256        N  0.24048201  0.16660585  0.63443611    -0.78300
C257        C  0.25970849  0.14483203  0.60548171     0.82500
N258        N  0.29723512  0.14497448  0.60660145    -0.80000
C259        C  0.59546047  0.17112010  0.61915150     0.80000
N260        N  0.61421337  0.19261604  0.58929567    -0.78300
C261        C  0.65163049  0.19096457  0.58669280     0.82400
N262        N  0.67067226  0.16818123  0.61474548    -0.78300
C263        C  0.65228611  0.14674554  0.64481647     0.82500
N264        N  0.61491192  0.14809807  0.64662219    -0.80000
O265        O  0.70434173  0.13347209  0.69072139    -0.73200
O266        O  0.75591863  0.07452266  0.78645257    -0.74200
O267        O  0.75569617  0.07398278  0.69153915    -0.62800
O268        O  0.70402827  0.13342278  0.78716923    -0.71200
O269        O  0.65751680  0.09341921  0.78633130    -0.70800
O270        O  0.70848188  0.03480487  0.69062660    -0.62000
O271        O  0.70930079  0.03464623  0.78709533    -0.74500
O272        O  0.65724955  0.09414252  0.69183660    -0.73300
Cu273      Cu  0.73161262  0.10532378  0.73892268     1.04600
Cu274      Cu  0.68159951  0.06277566  0.73892863     1.04300
C275        C  0.67244013  0.12350439  0.67687212     0.93000
C276        C  0.74084734  0.04521546  0.80165656     0.92100
C277        C  0.74022091  0.04477995  0.67645172     0.84300
C278        C  0.67242457  0.12283043  0.80142136     0.90600
O279        O  0.15711308  0.07398518  0.96109310    -0.73200
O280        O  0.20860356  0.13253083  0.55733528    -0.74200
O281        O  0.20903573  0.13244138  0.96080640    -0.62800
O282        O  0.15632802  0.07375622  0.55626271    -0.71200
O283        O  0.20292383  0.03390227  0.55794966    -0.70800
O284        O  0.25553680  0.09245926  0.96197598    -0.62000
O285        O  0.25526090  0.09273934  0.55725493    -0.74500
O286        O  0.20345137  0.03380641  0.96067824    -0.73300
Cu287      Cu  0.18133109  0.10441014  0.50895129     1.04600
Cu288      Cu  0.23097508  0.06149351  0.50975693     1.04300
C289        C  0.17207184  0.04462987  0.94591226     0.93000
C290        C  0.24016902  0.12219153  0.57203246     0.92100
C291        C  0.24055942  0.12177799  0.94652453     0.84300
C292        C  0.17113817  0.04433111  0.57164735     0.90600
C293        C  0.09427146  0.99872029  0.63229217     0.80000
N294        N  0.11388271  0.31240699  0.66268456    -0.78300
C295        C  0.15134266  0.31251577  0.66379403     0.82400
N296        N  0.17043907  0.33445609  0.63486202    -0.78300
C297        C  0.15094318  0.02169105  0.60441232     0.82500
N298        N  0.11342952  0.02132714  0.60399116    -0.80000
C299        C  0.81564344  0.99661962  0.61717011     0.80000
N300        N  0.79710949  0.02000242  0.64489212    -0.78300
C301        C  0.75971304  0.02164494  0.64379950     0.82400
N302        N  0.74063015  0.00034588  0.61406375    -0.78300
C303        C  0.75977965  0.31226702  0.58506693     0.82500
N304        N  0.79720555  0.31074825  0.58668392    -0.80000
C305        C  0.91401450  0.02931309  0.62985962    -0.02300
C306        C  0.93432215  0.99700841  0.62100409     0.06300
C307        C  0.91688430  0.30093660  0.60781064    -0.08200
C308        C  0.87824962  0.29959011  0.60601213     0.03800
C309        C  0.85650301  0.99560124  0.61822849    -0.15500
C310        C  0.87549254  0.02834664  0.62862127    -0.08800
C311        C  0.97511149  0.99690684  0.62302541     0.04700
C312        C  0.99254503  0.97986304  0.65977086    -0.09900
C313        C  0.03105032  0.98005986  0.66395696    -0.00300
C314        C  0.05303951  0.99770184  0.63046956    -0.00400
C315        C  0.03614097  0.35246893  0.59547856    -0.13500
C316        C  0.99768406  0.35224555  0.59099783     0.00000
C317        C  0.04654071  0.96232328  0.70345699     0.39400
C318        C  0.98102693  0.37101486  0.55293061     0.36000
C319        C  0.93213430  0.06369404  0.64071299     0.35700
C320        C  0.86112657  0.26493623  0.59398630     0.36500
N321        N  0.05855917  0.94788755  0.73519051    -0.44300
N322        N  0.96760091  0.38605786  0.52249930    -0.44800
N323        N  0.84762727  0.23707003  0.58429101    -0.42100
N324        N  0.94665791  0.09128487  0.64924295    -0.43600
H325        H  0.86021092  0.05348978  0.63533934     0.12600
H326        H  0.93287308  0.27655078  0.59952066     0.09100
H327        H  0.97585849  0.96668879  0.68563630     0.10100
H328        H  0.05227439  0.36680459  0.57008287     0.16000
C329        C  0.41453518  0.15467591  0.59592894    -0.02300
C330        C  0.43527140  0.16878581  0.63236538     0.06300
C331        C  0.41686624  0.18187178  0.67078160    -0.08200
C332        C  0.37819450  0.18150752  0.67317728     0.03800
C333        C  0.35706769  0.16780090  0.63623371    -0.15500
C334        C  0.37594433  0.15428366  0.59808219    -0.08800
C335        C  0.47620504  0.17034987  0.63056033     0.04700
C336        C  0.49311697  0.19382988  0.59911584    -0.09900
C337        C  0.53160020  0.19487374  0.59442290    -0.00300
C338        C  0.55422588  0.17218866  0.62229546    -0.00400
C339        C  0.53680628  0.14911685  0.65429542    -0.13500
C340        C  0.49836565  0.14791723  0.65843302     0.00000
C341        C  0.54637313  0.21905783  0.56006067     0.39400
C342        C  0.48230480  0.12228484  0.69025928     0.36000
C343        C  0.43239289  0.13975702  0.55630649     0.35700
C344        C  0.36144146  0.19464892  0.71445680     0.36500
N345        N  0.55781328  0.23845073  0.53226911    -0.44300
N346        N  0.46963810  0.10153766  0.71566291    -0.44800
N347        N  0.34819581  0.20523436  0.74760438    -0.42100
N348        N  0.44686998  0.12776800  0.52470497    -0.43600
H349        H  0.36057503  0.14356186  0.56944877     0.12600
H350        H  0.43285353  0.19252971  0.69898377     0.09100
H351        H  0.47598669  0.21111554  0.57762376     0.10100
H352        H  0.55312652  0.13130955  0.67599626     0.16000
C353        C  0.41436312  0.12909492  0.88679305    -0.02300
C354        C  0.43507829  0.16100468  0.87680690     0.06300
C355        C  0.41664412  0.19432392  0.86834956    -0.08200
C356        C  0.37806918  0.19632468  0.86974145     0.03800
C357        C  0.35708629  0.16433267  0.87960579    -0.15500
C358        C  0.37572870  0.13099680  0.88830935    -0.08800
C359        C  0.47605051  0.16050066  0.87532112     0.04700
C360        C  0.49382559  0.14140655  0.84044502    -0.09900
C361        C  0.53241792  0.14153793  0.83673535    -0.00300
C362        C  0.55419920  0.16164686  0.86837427    -0.00400
C363        C  0.53589895  0.18032480  0.90367301    -0.13500
C364        C  0.49738021  0.17970497  0.90744349     0.00000
C365        C  0.54825078  0.12075563  0.79989764     0.39400
C366        C  0.48030091  0.19824601  0.94523660     0.36000
C367        C  0.43222563  0.09434732  0.89651922     0.35700
C368        C  0.36105665  0.23195592  0.86287255     0.36500
N369        N  0.56069383  0.10382713  0.77044939    -0.44300
N370        N  0.46648695  0.21291150  0.97555939    -0.44800
N371        N  0.34751011  0.26056315  0.85746524    -0.42100
N372        N  0.44661247  0.06653027  0.90432674    -0.43600
H373        H  0.36008409  0.10624293  0.89595432     0.12600
H374        H  0.43256354  0.21895602  0.86090846     0.09100
H375        H  0.47736344  0.12654931  0.81575349     0.10100
H376        H  0.55161408  0.19538180  0.92885593     0.16000
C377        C  0.99660814  0.31306905  0.84877466    -0.02300
C378        C  0.97607798  0.34219315  0.86767531     0.06300
C379        C  0.99503218  0.03481043  0.89771776    -0.08200
C380        C  0.03364722  0.03502576  0.90011996     0.03800
C381        C  0.05436715  0.00765808  0.87683511    -0.15500
C382        C  0.03513647  0.31334648  0.85169888    -0.08800
C383        C  0.93547564  0.00839154  0.87178197     0.04700
C384        C  0.91639902  0.33825250  0.90844621    -0.09900
C385        C  0.87779538  0.33674642  0.90980237    -0.00300
C386        C  0.85745280  0.00596552  0.87191599    -0.00400
C387        C  0.87690536  0.01900824  0.83391120    -0.13500
C388        C  0.91549742  0.02018649  0.83353574     0.00000
C389        C  0.86018050  0.33450567  0.95351256     0.39400
C390        C  0.93405071  0.03364490  0.79357829     0.36000
C391        C  0.97868123  0.28144933  0.82867681     0.35700
C392        C  0.05064030  0.06398885  0.92649595     0.36500
N393        N  0.84632409  0.33290054  0.98870839    -0.44300
N394        N  0.94889200  0.04438696  0.76152590    -0.44800
N395        N  0.06399681  0.08728220  0.94774301    -0.42100
N396        N  0.96433955  0.25594988  0.81293755    -0.43600
H397        H  0.05028261  0.29039790  0.83731425     0.12600
H398        H  0.97931226  0.05561991  0.91569010     0.09100
H399        H  0.93207290  0.33631692  0.93969023     0.10100
H400        H  0.86200893  0.02781418  0.80391213     0.16000
C401        C  0.09593150  0.33806089  0.38044883     0.80000
N402        N  0.11537281  0.35858049  0.41060440    -0.78300
C403        C  0.15268174  0.35600563  0.41320607     0.82400
N404        N  0.17083643  0.66744203  0.38360582    -0.78300
C405        C  0.15179234  0.64690045  0.35308012     0.82500
N406        N  0.11443193  0.64956499  0.35087733    -0.80000
C407        C  0.81680226  0.33601770  0.36913299     0.80000
N408        N  0.79755215  0.64688775  0.39624549    -0.78300
C409        C  0.76017507  0.64524867  0.39388099     0.82400
N410        N  0.74176827  0.33243060  0.36370025    -0.78300
C411        C  0.76074423  0.35504545  0.33548793     0.82500
N412        N  0.79812330  0.35702674  0.33855942    -0.80000
O413        O  0.20297358  0.63285120  0.21072339    -0.73200
O414        O  0.25470013  0.57367782  0.30629989    -0.74200
O415        O  0.25424174  0.57380447  0.21181991    -0.62800
O416        O  0.20334149  0.63312367  0.30698023    -0.71200
O417        O  0.15604647  0.59403836  0.30626374    -0.70800
O418        O  0.20748827  0.53406633  0.21114305    -0.62000
O419        O  0.20761986  0.53436234  0.30770309    -0.74500
O420        O  0.15604517  0.59332554  0.21154163    -0.73300
Cu421      Cu  0.23035954  0.60481040  0.25899505     1.04600
Cu422      Cu  0.18018590  0.56244925  0.25922958     1.04300
C423        C  0.17130886  0.62256615  0.19636237     0.93000
C424        C  0.23958244  0.54435331  0.32144934     0.92100
C425        C  0.23911725  0.54445773  0.19683809     0.84300
C426        C  0.17145177  0.62338906  0.32096721     0.90600
C427        C  0.31676836  0.49823490  0.38070480     0.80000
N428        N  0.29736603  0.52073221  0.35258529    -0.78300
C429        C  0.25990892  0.52130777  0.35371908     0.82400
N430        N  0.24162826  0.49959867  0.38366690    -0.78300
C431        C  0.26076665  0.47714544  0.41210197     0.82500
N432        N  0.29822815  0.47618685  0.41014940    -0.80000
C433        C  0.59593182  0.49573795  0.36687502     0.80000
N434        N  0.61465767  0.51894949  0.39485473    -0.78300
C435        C  0.65209134  0.52078882  0.39373145     0.82400
N436        N  0.67116210  0.49972754  0.36390043    -0.78300
C437        C  0.65277601  0.47678747  0.33547740     0.82500
N438        N  0.61540419  0.47461176  0.33746972    -0.80000
O439        O  0.70864891  0.63266151  0.03839567    -0.73200
O440        O  0.65643241  0.57324137  0.44114990    -0.74200
O441        O  0.65659619  0.57400774  0.03748263    -0.62800
O442        O  0.70811874  0.63241341  0.43967062    -0.71200
O443        O  0.75512003  0.59300304  0.44145218    -0.70800
O444        O  0.70295870  0.53384892  0.03792385    -0.62000
O445        O  0.70352296  0.53392704  0.44060674    -0.74500
O446        O  0.75498025  0.59246742  0.03777428    -0.73300
Cu447      Cu  0.68088351  0.60484084  0.99007033     1.04600
Cu448      Cu  0.73065662  0.56203552  0.98999761     1.04300
C449        C  0.74015124  0.62190109  0.05288567     0.93000
C450        C  0.67174208  0.54391645  0.42635012     0.92100
C451        C  0.67152241  0.54453186  0.05249931     0.84300
C452        C  0.73998064  0.62225275  0.42605302     0.90600
C453        C  0.31604957  0.50093126  0.13515978     0.80000
N454        N  0.29657343  0.52270773  0.16379291    -0.78300
C455        C  0.25913280  0.52208558  0.16390651     0.82400
N456        N  0.24073731  0.50018783  0.13426723    -0.78300
C457        C  0.25984532  0.47870901  0.10489600     0.82500
N458        N  0.29737452  0.47892164  0.10566838    -0.80000
C459        C  0.59561958  0.50327049  0.11904770     0.80000
N460        N  0.61451551  0.52437700  0.08893845    -0.78300
C461        C  0.65190452  0.52249268  0.08629876     0.82400
N462        N  0.67082178  0.49981143  0.11460948    -0.78300
C463        C  0.65229739  0.47872076  0.14496364     0.82500
N464        N  0.61491476  0.48032743  0.14679372    -0.80000
O465        O  0.70423915  0.46561600  0.19116869    -0.73200
O466        O  0.75609696  0.40651751  0.28658250    -0.74200
O467        O  0.75558003  0.40622888  0.19181894    -0.62800
O468        O  0.70428098  0.46544134  0.28767594    -0.71200
O469        O  0.65779486  0.42540277  0.28695166    -0.70800
O470        O  0.70840717  0.36698694  0.19080329    -0.62000
O471        O  0.70951904  0.36659035  0.28717637    -0.74500
O472        O  0.65714864  0.42629008  0.19235238    -0.73300
Cu473      Cu  0.73164971  0.43743387  0.23926304     1.04600
Cu474      Cu  0.68166044  0.39484973  0.23928753     1.04300
C475        C  0.67235160  0.45561421  0.17729163     0.93000
C476        C  0.74111062  0.37711325  0.30163480     0.92100
C477        C  0.74015135  0.37702009  0.17671721     0.84300
C478        C  0.67276076  0.45477839  0.30208223     0.90600
O479        O  0.15777697  0.40747256  0.46175665    -0.73200
O480        O  0.20852269  0.46668583  0.05709442    -0.74200
O481        O  0.20977766  0.46589868  0.46041111    -0.62800
O482        O  0.15610141  0.40816047  0.05666065    -0.71200
O483        O  0.20262058  0.36822096  0.05801479    -0.70800
O484        O  0.25627750  0.42591860  0.46171907    -0.62000
O485        O  0.25508644  0.42677563  0.05659228    -0.74500
O486        O  0.20408043  0.36725583  0.46152757    -0.73300
Cu487      Cu  0.18082964  0.43872144  0.00897918     1.04600
Cu488      Cu  0.23037907  0.39569879  0.00940300     1.04300
C489        C  0.17262443  0.37796766  0.44685641     0.93000
C490        C  0.24013820  0.45623854  0.07150884     0.92100
C491        C  0.24125593  0.45516331  0.44609208     0.84300
C492        C  0.17103354  0.37883355  0.07218102     0.90600
C493        C  0.09468906  0.33430740  0.13497949     0.80000
N494        N  0.11423918  0.64505462  0.16233368    -0.78300
C495        C  0.15168635  0.64511268  0.16306098     0.82400
N496        N  0.17062289  0.66698827  0.13393165    -0.78300
C497        C  0.15117664  0.35656152  0.10569130     0.82500
N498        N  0.11365903  0.35657238  0.10609854    -0.80000
C499        C  0.81610346  0.32912727  0.11839437     0.80000
N500        N  0.79720557  0.35231544  0.14595278    -0.78300
C501        C  0.75985483  0.35392236  0.14431073     0.82400
N502        N  0.74109341  0.33270089  0.11423933    -0.78300
C503        C  0.76015668  0.64395954  0.08635910     0.82500
N504        N  0.79758442  0.64222437  0.08820846    -0.80000
C505        C  0.91391742  0.36231497  0.13541148    -0.02300
C506        C  0.93477003  0.33081082  0.12456578     0.06300
C507        C  0.91735842  0.63280963  0.11054032    -0.08200
C508        C  0.87873851  0.63134896  0.10831418     0.03800
C509        C  0.85700327  0.32845932  0.12019425    -0.15500
C510        C  0.87545000  0.36089327  0.13333507    -0.08800
C511        C  0.97553121  0.33144026  0.12662523     0.04700
C512        C  0.99331058  0.31401876  0.16283037    -0.09900
C513        C  0.03180965  0.31482634  0.16692841    -0.00300
C514        C  0.05344065  0.33334172  0.13377470    -0.00400
C515        C  0.03612400  0.68249041  0.09435077    -0.13500
C516        C  0.99763284  0.68198546  0.09046893     0.00000
C517        C  0.04766856  0.29675379  0.20597781     0.39400
C518        C  0.98060151  0.69755581  0.05053616     0.36000
C519        C  0.93144827  0.39636131  0.14898717     0.35700
C520        C  0.86177487  0.59654904  0.09661036     0.36500
N521        N  0.06002903  0.28208762  0.23735343    -0.44300
N522        N  0.96685367  0.70995697  0.01857268    -0.44800
N523        N  0.84844763  0.56855242  0.08712662    -0.42100
N524        N  0.94553925  0.42365558  0.15974969    -0.43600
H525        H  0.85980797  0.38551145  0.14152870     0.12600
H526        H  0.93348036  0.60836714  0.10290863     0.09100
H527        H  0.97689605  0.30004565  0.18833689     0.10100
H528        H  0.05208653  0.69465349  0.06716376     0.16000
C529        C  0.41460255  0.48957160  0.09424307    -0.02300
C530        C  0.43539586  0.50254509  0.13128306     0.06300
C531        C  0.41705180  0.51471448  0.17018460    -0.08200
C532        C  0.37840944  0.51433698  0.17262594     0.03800
C533        C  0.35724531  0.50163949  0.13519849    -0.15500
C534        C  0.37601612  0.48921621  0.09643120    -0.08800
C535        C  0.47633773  0.50367984  0.12977758     0.04700
C536        C  0.49363914  0.52740509  0.09896529    -0.09900
C537        C  0.53214223  0.52817779  0.09467247    -0.00300
C538        C  0.55439636  0.50477658  0.12212187    -0.00400
C539        C  0.53659870  0.48153265  0.15361459    -0.13500
C540        C  0.49812357  0.48078277  0.15754447     0.00000
C541        C  0.54732748  0.55308990  0.06137920     0.39400
C542        C  0.48159875  0.45529667  0.18920063     0.36000
C543        C  0.43236971  0.47570244  0.05398757     0.35700
C544        C  0.36172307  0.52624443  0.21450483     0.36500
N545        N  0.55910327  0.57313071  0.03450437    -0.44300
N546        N  0.46844901  0.43478598  0.21452427    -0.44800
N547        N  0.34853600  0.53582027  0.24814449    -0.42100
N548        N  0.44674929  0.46455268  0.02186048    -0.43600
H549        H  0.36056217  0.47934027  0.06740678     0.12600
H550        H  0.43307625  0.52454470  0.19880619     0.09100
H551        H  0.47680165  0.54520545  0.07775362     0.10100
H552        H  0.55264354  0.46330194  0.17509639     0.16000
C553        C  0.41478177  0.46190286  0.38732623    -0.02300
C554        C  0.43570769  0.49358994  0.37706249     0.06300
C555        C  0.41755043  0.52695370  0.36804448    -0.08200
C556        C  0.37898652  0.52921446  0.36913252     0.03800
C557        C  0.35775759  0.49741527  0.37915348    -0.15500
C558        C  0.37616351  0.46403041  0.38840164    -0.08800
C559        C  0.47663243  0.49277735  0.37581182     0.04700
C560        C  0.49434271  0.47383383  0.34077274    -0.09900
C561        C  0.53292265  0.47381976  0.33714514    -0.00300
C562        C  0.55471467  0.49353552  0.36912174    -0.00400
C563        C  0.53648299  0.51196449  0.40465421    -0.13500
C564        C  0.49797340  0.51157879  0.40826148     0.00000
C565        C  0.54873037  0.45348281  0.29991419     0.39400
C566        C  0.48091248  0.53006329  0.44610337     0.36000
C567        C  0.43242787  0.42720702  0.39792099     0.35700
C568        C  0.36226776  0.56493449  0.36191888     0.36500
N569        N  0.56117200  0.43694880  0.27012968    -0.44300
N570        N  0.46714655  0.54472592  0.47645947    -0.44800
N571        N  0.34899504  0.59363875  0.35627100    -0.42100
N572        N  0.44666837  0.39946227  0.40649110    -0.43600
H573        H  0.36035382  0.43942747  0.39626097     0.12600
H574        H  0.43367843  0.55142222  0.36046306     0.09100
H575        H  0.47783813  0.45929726  0.31583393     0.10100
H576        H  0.55223938  0.52671226  0.43007638     0.16000
C577        C  0.99688405  0.64758124  0.35037898    -0.02300
C578        C  0.97666149  0.67536927  0.37238767     0.06300
C579        C  0.99519117  0.36714004  0.39870175    -0.08200
C580        C  0.03380980  0.36747130  0.40145096     0.03800
C581        C  0.05476533  0.34029422  0.37815177    -0.15500
C582        C  0.03543612  0.64776710  0.35244236    -0.08800
C583        C  0.93581282  0.34058544  0.37210706     0.04700
C584        C  0.91686790  0.66318395  0.41025325    -0.09900
C585        C  0.87824511  0.66125037  0.41057935    -0.00300
C586        C  0.85780462  0.33785437  0.37168599    -0.00400
C587        C  0.87739096  0.34966722  0.33322048    -0.13500
C588        C  0.91598224  0.35095371  0.33309839     0.00000
C589        C  0.86076141  0.64845908  0.45159899     0.39400
C590        C  0.93467421  0.36305621  0.29260507     0.36000
C591        C  0.97857033  0.61800104  0.32651376     0.35700
C592        C  0.05054961  0.39626211  0.42834003     0.36500
N593        N  0.84706838  0.63804156  0.48458074    -0.44300
N594        N  0.94964536  0.37266367  0.26011372    -0.44800
N595        N  0.06366830  0.41940518  0.45005024    -0.42100
N596        N  0.96387896  0.59425676  0.30748064    -0.43600
H597        H  0.05037816  0.62566199  0.33595079     0.12600
H598        H  0.97930519  0.38781872  0.41668166     0.09100
H599        H  0.93240317  0.65467001  0.43991777     0.10100
H600        H  0.86258861  0.35738129  0.30269969     0.16000
C601        C  0.09513778  0.33927244  0.87811537     0.80000
N602        N  0.11417632  0.35966247  0.90883676    -0.78300
C603        C  0.15142701  0.35665658  0.91250187     0.82400
N604        N  0.17063001  0.66666278  0.88395647    -0.78300
C605        C  0.15135264  0.64605802  0.85368209     0.82500
N606        N  0.11394078  0.64830422  0.85232810    -0.80000
C607        C  0.81638230  0.33710489  0.86820255     0.80000
N608        N  0.79736193  0.64758800  0.89804305    -0.78300
C609        C  0.76000186  0.64578278  0.89568845     0.82400
N610        N  0.74135902  0.33344473  0.86453501    -0.78300
C611        C  0.75992937  0.35605501  0.83585493     0.82500
N612        N  0.79729158  0.35791335  0.83796372    -0.80000
O613        O  0.20237356  0.63301329  0.71043251    -0.73200
O614        O  0.25404082  0.57389059  0.80613581    -0.74200
O615        O  0.25399997  0.57421908  0.71161497    -0.62800
O616        O  0.20258025  0.63301748  0.80678770    -0.71200
O617        O  0.15544519  0.59374501  0.80584889    -0.70800
O618        O  0.20745509  0.53424514  0.71061917    -0.62000
O619        O  0.20714017  0.53435098  0.80721397    -0.74500
O620        O  0.15565510  0.59324168  0.71097552    -0.73300
Cu621      Cu  0.22977944  0.60499561  0.75876443     1.04600
Cu622      Cu  0.17980764  0.56239814  0.75868504     1.04300
C623        C  0.17080917  0.62256891  0.69589086     0.93000
C624        C  0.23894244  0.54454381  0.82126296     0.92100
C625        C  0.23910821  0.54479088  0.69653518     0.84300
C626        C  0.17081317  0.62301163  0.82088310     0.90600
C627        C  0.31590910  0.49981055  0.88237707     0.80000
N628        N  0.29655197  0.52189010  0.85375015    -0.78300
C629        C  0.25909685  0.52178193  0.85396901     0.82400
N630        N  0.24072085  0.49982378  0.88356592    -0.78300
C631        C  0.25979462  0.47772826  0.91249606     0.82500
N632        N  0.29732041  0.47742027  0.91141662    -0.80000
C633        C  0.59531877  0.49854193  0.86641716     0.80000
N634        N  0.61438479  0.52112141  0.89479833    -0.78300
C635        C  0.65183037  0.52217224  0.89411559     0.82400
N636        N  0.67065296  0.50091972  0.86424832    -0.78300
C637        C  0.65200108  0.47856284  0.83534303     0.82500
N638        N  0.61452927  0.47718617  0.83690465    -0.80000
O639        O  0.70822922  0.63321031  0.53620434    -0.73200
O640        O  0.65642126  0.57391354  0.94261733    -0.74200
O641        O  0.65656133  0.57440018  0.53598522    -0.62800
O642        O  0.70817991  0.63288015  0.94188673    -0.71200
O643        O  0.75511229  0.59338100  0.94306864    -0.70800
O644        O  0.70307465  0.53440565  0.53703367    -0.62000
O645        O  0.70335406  0.53443318  0.94136502    -0.74500
O646        O  0.75462755  0.59307396  0.53602962    -0.73300
Cu647      Cu  0.68073964  0.60479711  0.48815536     1.04600
Cu648      Cu  0.73064092  0.56212089  0.48874392     1.04300
C649        C  0.73967362  0.62251411  0.55091827     0.93000
C650        C  0.67162883  0.54473679  0.92723468     0.92100
C651        C  0.67165353  0.54518285  0.55150514     0.84300
C652        C  0.73995395  0.62273806  0.92797272     0.90600
C653        C  0.31661593  0.50149210  0.63558555     0.80000
N654        N  0.29688095  0.52326147  0.66397663    -0.78300
C655        C  0.25943268  0.52247672  0.66380063     0.82400
N656        N  0.24129889  0.50040691  0.63412114    -0.78300
C657        C  0.26065155  0.47890995  0.60501865     0.82500
N658        N  0.29816560  0.47928416  0.60609486    -0.80000
C659        C  0.59605759  0.50426917  0.61864726     0.80000
N660        N  0.61484432  0.52529011  0.58838118    -0.78300
C661        C  0.65222507  0.52349345  0.58571752     0.82400
N662        N  0.67126570  0.50106443  0.61422255    -0.78300
C663        C  0.65281001  0.48010848  0.64476893     0.82500
N664        N  0.61543950  0.48157355  0.64656036    -0.80000
O665        O  0.70455612  0.46713865  0.69141606    -0.73200
O666        O  0.75526972  0.40764447  0.78731711    -0.74200
O667        O  0.75584266  0.40770361  0.69244300    -0.62800
O668        O  0.70367903  0.46680014  0.78793930    -0.71200
O669        O  0.65703070  0.42697957  0.78673772    -0.70800
O670        O  0.70873801  0.36841767  0.69099182    -0.62000
O671        O  0.70862421  0.36779718  0.78759546    -0.74500
O672        O  0.65750340  0.42775281  0.69207968    -0.73300
Cu673      Cu  0.73144124  0.43878591  0.73979232     1.04600
Cu674      Cu  0.68141785  0.39626518  0.73930068     1.04300
C675        C  0.67278976  0.45708428  0.67719381     0.93000
C676        C  0.74016049  0.37824925  0.80225391     0.92100
C677        C  0.74050876  0.37856062  0.67700556     0.84300
C678        C  0.67198464  0.45633571  0.80201008     0.90600
O679        O  0.15630274  0.40788584  0.96164924    -0.73200
O680        O  0.20961818  0.46666461  0.55692717    -0.74200
O681        O  0.20859211  0.46622893  0.96050718    -0.62800
O682        O  0.15742469  0.40808674  0.55655468    -0.71200
O683        O  0.20391548  0.36811019  0.55828645    -0.70800
O684        O  0.25502440  0.42617591  0.96160717    -0.62000
O685        O  0.25626571  0.42684733  0.55679643    -0.74500
O686        O  0.20259369  0.36766511  0.96123160    -0.73300
Cu687      Cu  0.18211824  0.43850640  0.50890804     1.04600
Cu688      Cu  0.23171806  0.39552957  0.50964227     1.04300
C689        C  0.17115618  0.37844121  0.94656299     0.93000
C690        C  0.24119444  0.45631253  0.57154574     0.92100
C691        C  0.24010017  0.45553618  0.94618331     0.84300
C692        C  0.17225864  0.37876246  0.57218006     0.90600
C693        C  0.09509992  0.33470216  0.63371683     0.80000
N694        N  0.11377239  0.64422042  0.66086699    -0.78300
C695        C  0.15120800  0.64494235  0.66237014     0.82400
N696        N  0.17015031  0.66712011  0.63358961    -0.78300
C697        C  0.15203961  0.35653635  0.60533623     0.82500
N698        N  0.11454996  0.35680648  0.60517731    -0.80000
C699        C  0.81635909  0.33191178  0.61644982     0.80000
N700        N  0.79761312  0.35467393  0.64476382    -0.78300
C701        C  0.76017539  0.35584149  0.64398140     0.82400
N702        N  0.74123519  0.33467168  0.61396596    -0.78300
C703        C  0.75964016  0.64447278  0.58442896     0.82500
N704        N  0.79702138  0.64269233  0.58583253    -0.80000
C705        C  0.91456569  0.36493630  0.63178877    -0.02300
C706        C  0.93521650  0.33340162  0.62042204     0.06300
C707        C  0.91650488  0.63139046  0.60651117    -0.08200
C708        C  0.87786053  0.63048274  0.60487041     0.03800
C709        C  0.85732947  0.33130793  0.61739814    -0.15500
C710        C  0.87603222  0.36364516  0.63036884    -0.08800
C711        C  0.97599596  0.33348138  0.62304364     0.04700
C712        C  0.99314157  0.31525874  0.65913723    -0.09900
C713        C  0.03157662  0.31567677  0.66413997    -0.00300
C714        C  0.05385923  0.33421394  0.63170431    -0.00400
C715        C  0.03602389  0.68022618  0.59107710    -0.13500
C716        C  0.99758096  0.67947606  0.58657529     0.00000
C717        C  0.04665957  0.29749596  0.70357184     0.39400
C718        C  0.98085192  0.69479513  0.54630616     0.36000
C719        C  0.93237893  0.39876752  0.64561773     0.35700
C720        C  0.86031948  0.59603984  0.59280345     0.36500
N721        N  0.05832576  0.28286928  0.73537251    -0.44300
N722        N  0.96731944  0.70696855  0.51407475    -0.44800
N723        N  0.84650591  0.56836964  0.58292423    -0.42100
N724        N  0.94673596  0.42586042  0.65661596    -0.43600
H725        H  0.86052982  0.38822691  0.63909584     0.12600
H726        H  0.93221372  0.60676366  0.59848593     0.09100
H727        H  0.97624827  0.30108902  0.68400090     0.10100
H728        H  0.05219971  0.69243198  0.56410564     0.16000
C729        C  0.41532871  0.48863391  0.59587514    -0.02300
C730        C  0.43601445  0.50333189  0.63199574     0.06300
C731        C  0.41759267  0.51718976  0.66997304    -0.08200
C732        C  0.37893534  0.51688747  0.67232837     0.03800
C733        C  0.35784739  0.50236833  0.63580784    -0.15500
C734        C  0.37675821  0.48822175  0.59802240    -0.08800
C735        C  0.47692287  0.50469606  0.63029695     0.04700
C736        C  0.49395301  0.52713110  0.59785006    -0.09900
C737        C  0.53240220  0.52769889  0.59301147    -0.00300
C738        C  0.55487895  0.50568664  0.62185659    -0.00400
C739        C  0.53736253  0.48375042  0.65494652    -0.13500
C740        C  0.49892575  0.48297253  0.65918532     0.00000
C741        C  0.54727141  0.55060710  0.55741793     0.39400
C742        C  0.48267624  0.45850689  0.69222602     0.36000
C743        C  0.43320880  0.47318452  0.55656739     0.35700
C744        C  0.36220208  0.53107647  0.71309705     0.36500
N745        N  0.55879429  0.56896257  0.52863926    -0.44300
N746        N  0.46979051  0.43873453  0.71861084    -0.44800
N747        N  0.34901969  0.54254772  0.74583910    -0.42100
N748        N  0.44771161  0.46083058  0.52519513    -0.43600
H749        H  0.36143985  0.47696127  0.56966204     0.12600
H750        H  0.43356230  0.52841552  0.69785846     0.09100
H751        H  0.47692447  0.54390279  0.57563720     0.10100
H752        H  0.55359655  0.46652976  0.67744843     0.16000
C753        C  0.41456034  0.46520283  0.88838754    -0.02300
C754        C  0.43494633  0.49742453  0.87884512     0.06300
C755        C  0.41615607  0.53069679  0.87127337    -0.08200
C756        C  0.37754907  0.53224441  0.87272576     0.03800
C757        C  0.35691388  0.49983387  0.88158526    -0.15500
C758        C  0.37590956  0.46662991  0.88978205    -0.08800
C759        C  0.47590815  0.49709679  0.87649099     0.04700
C760        C  0.49324379  0.47750237  0.84166161    -0.09900
C761        C  0.53180769  0.47707064  0.83759206    -0.00300
C762        C  0.55401950  0.49716682  0.86872563    -0.00400
C763        C  0.53616068  0.51658924  0.90379053    -0.13500
C764        C  0.49767709  0.51648342  0.90799788     0.00000
C765        C  0.54719327  0.45555752  0.80111150     0.39400
C766        C  0.48116315  0.53554031  0.94579154     0.36000
C767        C  0.43280083  0.43059486  0.89781033     0.35700
C768        C  0.36009710  0.56779408  0.86696173     0.36500
N769        N  0.55929050  0.43802722  0.77197813    -0.44300
N770        N  0.46788960  0.55062699  0.97616989    -0.44800
N771        N  0.34617132  0.59632978  0.86253252    -0.42100
N772        N  0.44754241  0.40293032  0.90543067    -0.43600
H773        H  0.36052912  0.44159742  0.89684775     0.12600
H774        H  0.43179621  0.55560110  0.86432683     0.09100
H775        H  0.47645666  0.46251373  0.81742850     0.10100
H776        H  0.55220025  0.53173291  0.92858603     0.16000
C777        C  0.99638022  0.64707524  0.85140388    -0.02300
C778        C  0.97630381  0.67474625  0.87385186     0.06300
C779        C  0.99461452  0.37088323  0.88991479    -0.08200
C780        C  0.03317589  0.37092591  0.89377521     0.03800
C781        C  0.05410230  0.34177570  0.87449117    -0.15500
C782        C  0.03494152  0.64690791  0.85370848    -0.08800
C783        C  0.93514609  0.34202454  0.86724493     0.04700
C784        C  0.91639197  0.66418617  0.91200312    -0.09900
C785        C  0.87777338  0.66283099  0.91246756    -0.00300
C786        C  0.85724822  0.33896982  0.86913351    -0.00400
C787        C  0.87614970  0.34371223  0.82802759    -0.13500
C788        C  0.91472812  0.34531258  0.82677337     0.00000
C789        C  0.86009804  0.65195056  0.95417973     0.39400
C790        C  0.93266335  0.35105770  0.78374061     0.36000
C791        C  0.97789752  0.61773306  0.82727703     0.35700
C792        C  0.04993729  0.40117999  0.91809410     0.36500
N793        N  0.84619720  0.64319341  0.98774562    -0.44300
N794        N  0.94690017  0.35572902  0.74919672    -0.44800
N795        N  0.06308885  0.42537843  0.93796453    -0.42100
N796        N  0.96306811  0.59409042  0.80820967    -0.43600
H797        H  0.04977849  0.62509228  0.83650344     0.12600
H798        H  0.97875137  0.39311640  0.90490009     0.09100
H799        H  0.93182785  0.65627450  0.94199720     0.10100
H800        H  0.86073638  0.34586551  0.79661222     0.16000
C801        C  0.09582952  0.67302000  0.37857037     0.80000
N802        N  0.11522264  0.69335050  0.40893230    -0.78300
C803        C  0.15248087  0.69053698  0.41178843     0.82400
N804        N  0.17056360  0.99943566  0.38410623    -0.78300
C805        C  0.15135605  0.97883170  0.35374304     0.82500
N806        N  0.11394550  0.98089910  0.35244832    -0.80000
C807        C  0.81680053  0.67025891  0.36921013     0.80000
N808        N  0.79705606  0.98039916  0.39756597    -0.78300
C809        C  0.75967599  0.97909752  0.39541601     0.82400
N810        N  0.74175654  0.66657633  0.36355479    -0.78300
C811        C  0.76072869  0.68955880  0.33575119     0.82500
N812        N  0.79809554  0.69155209  0.33895027    -0.80000
O813        O  0.20190097  0.96561469  0.21009872    -0.73200
O814        O  0.25402612  0.90689669  0.30580043    -0.74200
O815        O  0.25363127  0.90682339  0.21136968    -0.62800
O816        O  0.20247170  0.96593316  0.30652487    -0.71200
O817        O  0.15541511  0.92656390  0.30590747    -0.70800
O818        O  0.20715562  0.86676276  0.21078893    -0.62000
O819        O  0.20718401  0.86729325  0.30731204    -0.74500
O820        O  0.15525081  0.92577551  0.21097305    -0.73300
Cu821      Cu  0.22952578  0.93778675  0.25843875     1.04600
Cu822      Cu  0.17962721  0.89510762  0.25877354     1.04300
C823        C  0.17030868  0.95510281  0.19571938     0.93000
C824        C  0.23903762  0.87756312  0.32110824     0.92100
C825        C  0.23879769  0.87725365  0.19661664     0.84300
C826        C  0.17079152  0.95586054  0.32084092     0.90600
C827        C  0.31630027  0.83235321  0.38111747     0.80000
N828        N  0.29683962  0.85454585  0.35271592    -0.78300
C829        C  0.25938601  0.85486176  0.35367189     0.82400
N830        N  0.24115654  0.83322123  0.38373676    -0.78300
C831        C  0.26037390  0.81107607  0.41244804     0.82500
N832        N  0.29783777  0.81033900  0.41065297    -0.80000
C833        C  0.59555427  0.83077886  0.36588616     0.80000
N834        N  0.61430687  0.85370619  0.39416528    -0.78300
C835        C  0.65173083  0.85540485  0.39326788     0.82400
N836        N  0.67082847  0.83447756  0.36333543    -0.78300
C837        C  0.65247277  0.81182004  0.33454299     0.82500
N838        N  0.61504652  0.80978323  0.33629652    -0.80000
O839        O  0.70752173  0.96684344  0.03690367    -0.73200
O840        O  0.65593218  0.90717191  0.44174044    -0.74200
O841        O  0.65593840  0.90796033  0.03587554    -0.62800
O842        O  0.70760125  0.96623107  0.44117310    -0.71200
O843        O  0.75457634  0.92676767  0.44259840    -0.70800
O844        O  0.70247415  0.86799446  0.03649522    -0.62000
O845        O  0.70301780  0.86785594  0.44066767    -0.74500
O846        O  0.75390654  0.92668916  0.03642105    -0.73300
Cu847      Cu  0.68019432  0.93881555  0.98842286     1.04600
Cu848      Cu  0.73009944  0.89613852  0.98864938     1.04300
C849        C  0.73893753  0.95602913  0.05157121     0.93000
C850        C  0.67129738  0.87806087  0.42642769     0.92100
C851        C  0.67109144  0.87868310  0.05117407     0.84300
C852        C  0.73945789  0.95611047  0.42748780     0.90600
C853        C  0.31646578  0.83344975  0.13653287     0.80000
N854        N  0.29666065  0.85533370  0.16471725    -0.78300
C855        C  0.25921221  0.85470209  0.16421568     0.82400
N856        N  0.24116307  0.83266991  0.13442372    -0.78300
C857        C  0.26059034  0.81107611  0.10549893     0.82500
N858        N  0.29810687  0.81130693  0.10687578    -0.80000
C859        C  0.59595814  0.83774060  0.11915299     0.80000
N860        N  0.61453421  0.85876830  0.08869254    -0.78300
C861        C  0.65188171  0.85689017  0.08552340     0.82400
N862        N  0.67112366  0.83438900  0.11377076    -0.78300
C863        C  0.65289969  0.81341921  0.14453296     0.82500
N864        N  0.61553570  0.81497077  0.14679736    -0.80000
O865        O  0.70499003  0.80033732  0.19071794    -0.73200
O866        O  0.75625366  0.74117791  0.28688839    -0.74200
O867        O  0.75639684  0.74078984  0.19193812    -0.62800
O868        O  0.70433535  0.80025569  0.28728238    -0.71200
O869        O  0.65784070  0.76024493  0.28626698    -0.70800
O870        O  0.70919326  0.70160787  0.19079015    -0.62000
O871        O  0.70962585  0.70132478  0.28722497    -0.74500
O872        O  0.65794839  0.76095856  0.19174149    -0.73300
Cu873      Cu  0.73211334  0.77212363  0.23918516     1.04600
Cu874      Cu  0.68211911  0.72957422  0.23896140     1.04300
C875        C  0.67313224  0.79030979  0.17673615     0.93000
C876        C  0.74117349  0.71178593  0.30189039     0.92100
C877        C  0.74099136  0.71156910  0.17679331     0.84300
C878        C  0.67267031  0.78969355  0.30137637     0.90600
O879        O  0.15748098  0.74142383  0.46115786    -0.73200
O880        O  0.20966436  0.79923728  0.05710445    -0.74200
O881        O  0.20951010  0.79966696  0.46084682    -0.62800
O882        O  0.15738753  0.74079657  0.05613028    -0.71200
O883        O  0.20382283  0.70073698  0.05740684    -0.70800
O884        O  0.25594533  0.75959195  0.46156537    -0.62000
O885        O  0.25626069  0.75936285  0.05666488    -0.74500
O886        O  0.20373651  0.70113984  0.46035450    -0.73300
Cu887      Cu  0.18212666  0.77144669  0.00880964     1.04600
Cu888      Cu  0.23170437  0.72843358  0.00911949     1.04300
C889        C  0.17234106  0.71209004  0.44579663     0.93000
C890        C  0.24119619  0.78873164  0.07170841     0.92100
C891        C  0.24093686  0.78897422  0.44632812     0.84300
C892        C  0.17219280  0.71135439  0.07143134     0.90600
C893        C  0.09531522  0.66737016  0.13355785     0.80000
N894        N  0.11313575  0.97664543  0.16083355    -0.78300
C895        C  0.15057071  0.97745035  0.16224121     0.82400
N896        N  0.16939368  0.99981597  0.13355030    -0.78300
C897        C  0.15206981  0.68903869  0.10453317     0.82500
N898        N  0.11457112  0.68939958  0.10473615    -0.80000
C899        C  0.81673438  0.66372631  0.11764083     0.80000
N900        N  0.79801333  0.68700618  0.14531665    -0.78300
C901        C  0.76061755  0.68840743  0.14426988     0.82400
N902        N  0.74166303  0.66691006  0.11464748    -0.78300
C903        C  0.75889409  0.97777756  0.08526577     0.82500
N904        N  0.79625488  0.97572190  0.08692984    -0.80000
C905        C  0.91474041  0.69721045  0.13281570    -0.02300
C906        C  0.93550162  0.66552265  0.12256432     0.06300
C907        C  0.91556811  0.96385426  0.10839960    -0.08200
C908        C  0.87692091  0.96304569  0.10684621     0.03800
C909        C  0.85768644  0.66318278  0.11878193    -0.15500
C910        C  0.87623572  0.69578918  0.13108833    -0.08800
C911        C  0.97624651  0.66593960  0.12492112     0.04700
C912        C  0.99366137  0.65069281  0.16284878    -0.09900
C913        C  0.03216648  0.65110036  0.16699181    -0.00300
C914        C  0.05411514  0.66697336  0.13221100    -0.00400
C915        C  0.03508166  0.01262047  0.09156802    -0.13500
C916        C  0.99661138  0.01191528  0.08737397     0.00000
C917        C  0.04778832  0.63554451  0.20776640     0.39400
C918        C  0.97969108  0.02724379  0.04723139     0.36000
C919        C  0.93241629  0.73143059  0.14540769     0.35700
C920        C  0.85921232  0.92851241  0.09555307     0.36500
N921        N  0.06005071  0.62290649  0.24049038    -0.44300
N922        N  0.96599285  0.03944365  0.01512120    -0.44800
N923        N  0.84524217  0.90076534  0.08635077    -0.42100
N924        N  0.94661339  0.75886852  0.15538551    -0.43600
H925        H  0.86063831  0.72050650  0.13895467     0.12600
H926        H  0.93119044  0.93909400  0.10074753     0.09100
H927        H  0.97697927  0.63869722  0.18956223     0.10100
H928        H  0.05113905  0.02477187  0.06445597     0.16000
C929        C  0.41526020  0.82234043  0.09641869    -0.02300
C930        C  0.43586259  0.83616694  0.13316345     0.06300
C931        C  0.41729337  0.84877673  0.17171065    -0.08200
C932        C  0.37862995  0.84808848  0.17401333     0.03800
C933        C  0.35768107  0.83441670  0.13690686    -0.15500
C934        C  0.37669326  0.82147995  0.09857574    -0.08800
C935        C  0.47680668  0.83789703  0.13152763     0.04700
C936        C  0.49369439  0.86036181  0.09897781    -0.09900
C937        C  0.53211896  0.86093798  0.09383876    -0.00300
C938        C  0.55478414  0.83917898  0.12275672    -0.00400
C939        C  0.53745091  0.81737248  0.15611503    -0.13500
C940        C  0.49901089  0.81633455  0.16040372     0.00000
C941        C  0.54673599  0.88331464  0.05758567     0.39400
C942        C  0.48298306  0.79151961  0.19321452     0.36000
C943        C  0.43320431  0.80835170  0.05633986     0.35700
C944        C  0.36169790  0.86101904  0.21528351     0.36500
N945        N  0.55804013  0.90116298  0.02820401    -0.44300
N946        N  0.47027679  0.77140180  0.21933720    -0.44800
N947        N  0.34830267  0.87149944  0.24839031    -0.42100
N948        N  0.44776443  0.79724523  0.02431359    -0.43600
H949        H  0.36143765  0.81094211  0.06974737     0.12600
H950        H  0.43314110  0.85937349  0.20006575     0.09100
H951        H  0.47655605  0.87697656  0.07670567     0.10100
H952        H  0.55383039  0.80030518  0.17864145     0.16000
C953        C  0.41443974  0.79646015  0.38739983    -0.02300
C954        C  0.43524008  0.82831582  0.37740134     0.06300
C955        C  0.41688017  0.86164429  0.36869178    -0.08200
C956        C  0.37830811  0.86370226  0.36983182     0.03800
C957        C  0.35726621  0.83176107  0.37966984    -0.15500
C958        C  0.37582000  0.79842603  0.38863864    -0.08800
C959        C  0.47620201  0.82768828  0.37581867     0.04700
C960        C  0.49385483  0.80766517  0.34161694    -0.09900
C961        C  0.53242720  0.80770364  0.33765510    -0.00300
C962        C  0.55430252  0.82862066  0.36834735    -0.00400
C963        C  0.53613375  0.84822452  0.40300203    -0.13500
C964        C  0.49765130  0.84775010  0.40702021     0.00000
C965        C  0.54815353  0.78598060  0.30157956     0.39400
C966        C  0.48078629  0.86741144  0.44411254     0.36000
C967        C  0.43216319  0.76168739  0.39739071     0.35700
C968        C  0.36134716  0.89931949  0.36267561     0.36500
N969        N  0.56052587  0.76832858  0.27273108    -0.44300
N970        N  0.46723198  0.88302939  0.47389566    -0.44800
N971        N  0.34782669  0.92790832  0.35702798    -0.42100
N972        N  0.44639696  0.73382779  0.40539296    -0.43600
H973        H  0.36011419  0.77370990  0.39628434     0.12600
H974        H  0.43285069  0.88622622  0.36117057     0.09100
H975        H  0.47730694  0.79217544  0.31761776     0.10100
H976        H  0.55191545  0.86397088  0.42747420     0.16000
C977        C  0.99652170  0.97955852  0.35044194    -0.02300
C978        C  0.97623542  0.00674722  0.37347216     0.06300
C979        C  0.99539112  0.70315797  0.39592846    -0.08200
C980        C  0.03403536  0.70361377  0.39798686     0.03800
C981        C  0.05472055  0.67535078  0.37633939    -0.15500
C982        C  0.03505673  0.97945229  0.35310794    -0.08800
C983        C  0.93583353  0.67544250  0.37186180     0.04700
C984        C  0.91627711  0.99602926  0.41139006    -0.09900
C985        C  0.87766630  0.99462007  0.41177695    -0.00300
C986        C  0.85784196  0.67215356  0.37169558    -0.00400
C987        C  0.87725988  0.68513362  0.33363846    -0.13500
C988        C  0.91583682  0.68668304  0.33339200     0.00000
C989        C  0.86001536  0.98312260  0.45326257     0.39400
C990        C  0.93437964  0.69978010  0.29325362     0.36000
C991        C  0.97828205  0.95072974  0.32513404     0.35700
C992        C  0.05114587  0.73375915  0.42216860     0.36500
N993        N  0.84618954  0.97373943  0.48662407    -0.44300
N994        N  0.94923859  0.71020756  0.26106150    -0.44800
N995        N  0.06462236  0.75799354  0.44164743    -0.42100
N996        N  0.96361991  0.92757133  0.30500947    -0.43600
H997        H  0.05004391  0.95796481  0.33549102     0.12600
H998        H  0.97967297  0.72463212  0.41269076     0.09100
H999        H  0.93168288  0.98807292  0.44139567     0.10100
H1000       H  0.86234747  0.69356021  0.30348805     0.16000
C1001       C  0.09549348  0.67140987  0.88060457     0.80000
N1002       N  0.11512966  0.69185382  0.91062968    -0.78300
C1003       C  0.15245124  0.68944071  0.91269426     0.82400
N1004       N  0.17056713  0.99994789  0.88356046    -0.78300
C1005       C  0.15143751  0.97940229  0.85306778     0.82500
N1006       N  0.11406065  0.98193089  0.85113997    -0.80000
C1007       C  0.81652183  0.67078391  0.87070106     0.80000
N1008       N  0.79709354  0.98122876  0.89689477    -0.78300
C1009       C  0.75972299  0.97966994  0.89458598     0.82400
N1010       N  0.74151341  0.66672942  0.86499204    -0.78300
C1011       C  0.76045851  0.68948503  0.83684006     0.82500
N1012       N  0.79779479  0.69165809  0.84007998    -0.80000
O1013       O  0.20218576  0.96540219  0.71015942    -0.73200
O1014       O  0.25421580  0.90664832  0.80591390    -0.74200
O1015       O  0.25385418  0.90655150  0.71152812    -0.62800
O1016       O  0.20276412  0.96589621  0.80647785    -0.71200
O1017       O  0.15558794  0.92667085  0.80594759    -0.70800
O1018       O  0.20730853  0.86656935  0.71104420    -0.62000
O1019       O  0.20727855  0.86716421  0.80752807    -0.74500
O1020       O  0.15546795  0.92563965  0.71111829    -0.73300
Cu1021     Cu  0.22978122  0.93758358  0.75852187     1.04600
Cu1022     Cu  0.17978928  0.89501486  0.75895411     1.04300
C1023       C  0.17054842  0.95494716  0.69586037     0.93000
C1024       C  0.23919275  0.87732765  0.82122398     0.92100
C1025       C  0.23896862  0.87699296  0.69684303     0.84300
C1026       C  0.17098027  0.95603634  0.82066515     0.90600
C1027       C  0.31660688  0.83236362  0.88126789     0.80000
N1028       N  0.29703090  0.85442391  0.85283230    -0.78300
C1029       C  0.25958321  0.85452815  0.85366547     0.82400
N1030       N  0.24142481  0.83270573  0.88358971    -0.78300
C1031       C  0.26071201  0.81061405  0.91230097     0.82500
N1032       N  0.29820386  0.81017288  0.91069662    -0.80000
C1033       C  0.59578999  0.83147710  0.86492761     0.80000
N1034       N  0.61460036  0.85446451  0.89304761    -0.78300
C1035       C  0.65202314  0.85590962  0.89234051     0.82400
N1036       N  0.67108858  0.83463128  0.86271634    -0.78300
C1037       C  0.65266748  0.81187392  0.83406136     0.82500
N1038       N  0.61521955  0.81011551  0.83566098    -0.80000
O1039       O  0.70764828  0.96611893  0.53760469    -0.73200
O1040       O  0.65611778  0.90770892  0.94081734    -0.74200
O1041       O  0.65603561  0.90726195  0.53666472    -0.62800
O1042       O  0.70767297  0.96684555  0.94038831    -0.71200
O1043       O  0.75465330  0.92739354  0.94191965    -0.70800
O1044       O  0.70259154  0.86730918  0.53712829    -0.62000
O1045       O  0.70320704  0.86839950  0.93992401    -0.74500
O1046       O  0.75408573  0.92602617  0.53710045    -0.73300
Cu1047     Cu  0.68019373  0.93817210  0.48924051     1.04600
Cu1048     Cu  0.73011167  0.89550218  0.48932758     1.04300
C1049       C  0.73911235  0.95538806  0.55219914     0.93000
C1050       C  0.67153951  0.87860408  0.92553378     0.92100
C1051       C  0.67119456  0.87793626  0.55180298     0.84300
C1052       C  0.73953547  0.95671560  0.92673608     0.90600
C1053       C  0.31639998  0.83304904  0.63641473     0.80000
N1054       N  0.29675636  0.85495407  0.66476056    -0.78300
C1055       C  0.25929458  0.85440808  0.66440997     0.82400
N1056       N  0.24111015  0.83247326  0.63464611    -0.78300
C1057       C  0.26039692  0.81088239  0.60559997     0.82500
N1058       N  0.29790676  0.81101914  0.60678583    -0.80000
C1059       C  0.59599222  0.83660164  0.61920571     0.80000
N1060       N  0.61461540  0.85780300  0.58898504    -0.78300
C1061       C  0.65195682  0.85597813  0.58590721     0.82400
N1062       N  0.67116472  0.83333651  0.61397873    -0.78300
C1063       C  0.65291823  0.81218906  0.64451126     0.82500
N1064       N  0.61553598  0.81369409  0.64673183    -0.80000
O1065       O  0.70509361  0.79918976  0.69050630    -0.73200
O1066       O  0.75618960  0.74054654  0.78716997    -0.74200
O1067       O  0.75653673  0.73971003  0.69208324    -0.62800
O1068       O  0.70451145  0.79973482  0.78698526    -0.71200
O1069       O  0.65792723  0.75983151  0.78634559    -0.70800
O1070       O  0.70936915  0.70050073  0.69114785    -0.62000
O1071       O  0.70952953  0.70073305  0.78784586    -0.74500
O1072       O  0.65803566  0.75982977  0.69182018    -0.73300
Cu1073     Cu  0.73221189  0.77124594  0.73915645     1.04600
Cu1074     Cu  0.68219034  0.72873735  0.73925967     1.04300
C1075       C  0.67320187  0.78912773  0.67667024     0.93000
C1076       C  0.74101143  0.71132907  0.80254270     0.92100
C1077       C  0.74110684  0.71051619  0.67691319     0.84300
C1078       C  0.67281568  0.78937009  0.80116700     0.90600
O1079       O  0.15775084  0.74072781  0.96142882    -0.73200
O1080       O  0.20934466  0.79929105  0.55736632    -0.74200
O1081       O  0.20979381  0.79909129  0.96057140    -0.62800
O1082       O  0.15698577  0.74090399  0.55588653    -0.71200
O1083       O  0.20343906  0.70085781  0.55699305    -0.70800
O1084       O  0.25632453  0.75913825  0.96154597    -0.62000
O1085       O  0.25590869  0.75937188  0.55660306    -0.74500
O1086       O  0.20405764  0.70051453  0.96071553    -0.73300
Cu1087     Cu  0.18179832  0.77181153  0.50884740     1.04600
Cu1088     Cu  0.23133675  0.72873587  0.50891996     1.04300
C1089       C  0.17255849  0.71129412  0.94627012     0.93000
C1090       C  0.24088607  0.78868802  0.57182794     0.92100
C1091       C  0.24127708  0.78845537  0.94616638     0.84300
C1092       C  0.17178422  0.71139447  0.57100899     0.90600
C1093       C  0.09486158  0.66617843  0.63165831     0.80000
N1094       N  0.11333556  0.97661980  0.66120044    -0.78300
C1095       C  0.15077345  0.97735783  0.66250337     0.82400
N1096       N  0.16957482  0.99976393  0.63386831    -0.78300
C1097       C  0.15161602  0.68885821  0.60382805     0.82500
N1098       N  0.11412431  0.68855664  0.60325145    -0.80000
C1099       C  0.81642773  0.66350884  0.61563498     0.80000
N1100       N  0.79798340  0.68626894  0.64426956    -0.78300
C1101       C  0.76053212  0.68767831  0.64374624     0.82400
N1102       N  0.74132528  0.66680680  0.61363734    -0.78300
C1103       C  0.75902960  0.97736653  0.58571860     0.82500
N1104       N  0.79640074  0.97536084  0.58764676    -0.80000
C1105       C  0.91496574  0.69576441  0.62908251    -0.02300
C1106       C  0.93519077  0.66379311  0.61848602     0.06300
C1107       C  0.91564439  0.96411912  0.61103819    -0.08200
C1108       C  0.87700814  0.96312719  0.60929915     0.03800
C1109       C  0.85734890  0.66251619  0.61612480    -0.15500
C1110       C  0.87642620  0.69484322  0.62817632    -0.08800
C1111       C  0.97592740  0.66356846  0.62085725     0.04700
C1112       C  0.99303861  0.64835849  0.65901109    -0.09900
C1113       C  0.03149281  0.64895679  0.66375432    -0.00300
C1114       C  0.05370231  0.66505187  0.62937645    -0.00400
C1115       C  0.03503450  0.01463071  0.59351704    -0.13500
C1116       C  0.99654358  0.01418792  0.58950826     0.00000
C1117       C  0.04674460  0.63351495  0.70481022     0.39400
C1118       C  0.97955817  0.03103734  0.55032341     0.36000
C1119       C  0.93325754  0.72978912  0.64111365     0.35700
C1120       C  0.85940130  0.92819412  0.59976785     0.36500
N1121       N  0.05862521  0.62096985  0.73780239    -0.44300
N1122       N  0.96578766  0.04443795  0.51898549    -0.44800
N1123       N  0.84548824  0.90011840  0.59205795    -0.42100
N1124       N  0.94798351  0.75707665  0.65053941    -0.43600
H1125       H  0.86120912  0.71971808  0.63640969     0.12600
H1126       H  0.93135861  0.93918634  0.60459487     0.09100
H1127       H  0.97613529  0.63640654  0.68554988     0.10100
H1128       H  0.05097905  0.02797483  0.56716160     0.16000
C1129       C  0.41494106  0.82293417  0.59513898    -0.02300
C1130       C  0.43576563  0.83533191  0.63250644     0.06300
C1131       C  0.41734038  0.84675397  0.67173782    -0.08200
C1132       C  0.37868885  0.84612548  0.67420334     0.03800
C1133       C  0.35758309  0.83389349  0.63653289    -0.15500
C1134       C  0.37637399  0.82225234  0.59744185    -0.08800
C1135       C  0.47675895  0.83680406  0.63090029     0.04700
C1136       C  0.49382369  0.85931627  0.59852809    -0.09900
C1137       C  0.53226786  0.85990483  0.59366649    -0.00300
C1138       C  0.55480550  0.83804945  0.62262597    -0.00400
C1139       C  0.53733148  0.81622651  0.65583786    -0.13500
C1140       C  0.49886772  0.81525331  0.65994803     0.00000
C1141       C  0.54705529  0.88252893  0.55774752     0.39400
C1142       C  0.48273927  0.79062839  0.69290216     0.36000
C1143       C  0.43258553  0.81014467  0.55426239     0.35700
C1144       C  0.36187971  0.85740825  0.71625809     0.36500
N1145       N  0.55852841  0.90060570  0.52867575    -0.44300
N1146       N  0.46993503  0.77073506  0.71921062    -0.44800
N1147       N  0.34853792  0.86651711  0.74999711    -0.42100
N1148       N  0.44681688  0.79997898  0.52154983    -0.43600
H1149       H  0.36092751  0.81284207  0.56817636     0.12600
H1150       H  0.43329264  0.85630308  0.70056051     0.09100
H1151       H  0.47681888  0.87607241  0.57625872     0.10100
H1152       H  0.55363234  0.79914851  0.67842831     0.16000
C1153       C  0.41520382  0.79775572  0.88947437    -0.02300
C1154       C  0.43561979  0.82928003  0.87717561     0.06300
C1155       C  0.41698030  0.86210656  0.86681643    -0.08200
C1156       C  0.37839696  0.86391147  0.86823747     0.03800
C1157       C  0.35763555  0.83216323  0.87995995    -0.15500
C1158       C  0.37656902  0.79940000  0.89085316    -0.08800
C1159       C  0.47651954  0.82881353  0.87513206     0.04700
C1160       C  0.49396392  0.80936548  0.84029567    -0.09900
C1161       C  0.53252754  0.80925792  0.83624201    -0.00300
C1162       C  0.55454685  0.82954633  0.86739711    -0.00400
C1163       C  0.53655028  0.84860194  0.90265560    -0.13500
C1164       C  0.49808511  0.84812792  0.90686130     0.00000
C1165       C  0.54812891  0.78789415  0.79976892     0.39400
C1166       C  0.48132851  0.86677200  0.94480003     0.36000
C1167       C  0.43342804  0.76373036  0.90173456     0.35700
C1168       C  0.36118149  0.89914920  0.85933430     0.36500
N1169       N  0.56044284  0.77046194  0.77068471    -0.44300
N1170       N  0.46781900  0.88145461  0.97531772    -0.44800
N1171       N  0.34745402  0.92743289  0.85227728    -0.42100
N1172       N  0.44817372  0.73655265  0.91165241    -0.43600
H1173       H  0.36117311  0.77486400  0.90012152     0.12600
H1174       H  0.43273833  0.88649119  0.85780078     0.09100
H1175       H  0.47727122  0.79430501  0.81603696     0.10100
H1176       H  0.55246106  0.86376093  0.92755880     0.16000
C1177       C  0.99652828  0.98115152  0.84885286    -0.02300
C1178       C  0.97630638  0.00812178  0.87235455     0.06300
C1179       C  0.99514863  0.70162403  0.89877639    -0.08200
C1180       C  0.03374562  0.70146080  0.90157388     0.03800
C1181       C  0.05434788  0.67374723  0.87875578    -0.15500
C1182       C  0.03508716  0.98116112  0.85110493    -0.08800
C1183       C  0.93548126  0.67526098  0.87316668     0.04700
C1184       C  0.91647120  0.99616444  0.91015646    -0.09900
C1185       C  0.87784358  0.99469611  0.91065550    -0.00300
C1186       C  0.85750766  0.67278138  0.87314514    -0.00400
C1187       C  0.87699228  0.68484539  0.83469753    -0.13500
C1188       C  0.91558145  0.68615631  0.83444120     0.00000
C1189       C  0.86035969  0.98202987  0.95173871     0.39400
C1190       C  0.93416927  0.69905025  0.79422678     0.36000
C1191       C  0.97821302  0.95251788  0.82330306     0.35700
C1192       C  0.05082704  0.73021804  0.92819126     0.36500
N1193       N  0.84666150  0.97173298  0.98477578    -0.44300
N1194       N  0.94895965  0.70947282  0.76197981    -0.44800
N1195       N  0.06424098  0.75326928  0.94977643    -0.42100
N1196       N  0.96351970  0.92952273  0.80293343    -0.43600
H1197       H  0.05002246  0.95979174  0.83320322     0.12600
H1198       H  0.97952673  0.72276816  0.91628710     0.09100
H1199       H  0.93198469  0.98735948  0.93971441     0.10100
H1200       H  0.86211676  0.69282210  0.80433364     0.16000
loop_ 
_geom_bond_atom_site_label_1 
_geom_bond_atom_site_label_2 
_geom_bond_distance 
_geom_bond_site_symmetry_2 
_ccdc_geom_bond_type 
C1            N2   1.356       .  A
C1          N806   1.360   1_545  A
C1          C181   1.493       .  S
N2            C3   1.356       .  A
C3          N804   1.357   1_545  A
C3           C89   1.463       .  S
N4            C5   1.358       .  A
N4          C403   1.357       .  A
C5            N6   1.358       .  A
C5           C26   1.464       .  S
N6          C401   1.360       .  A
C7           N12   1.360       .  A
C7          N808   1.357   1_545  A
C7          C186   1.488       .  S
N8            C9   1.356       .  A
N8          C407   1.357       .  A
C9          N410   1.356       .  A
C9           C52   1.459       .  S
N10          C11   1.357       .  A
N10         C809   1.356   1_545  A
C11          N12   1.358       .  A
C11          C76   1.463       .  S
O13         Cu21   2.014       .  S
O13          C23   1.278       .  A
O14         Cu21   2.001       .  S
O14          C24   1.276       .  A
O15         Cu21   1.993       .  S
O15          C25   1.275       .  A
O16         Cu21   2.010       .  S
O16          C26   1.277       .  A
O17         Cu22   2.005       .  S
O17          C26   1.277       .  A
O18         Cu22   2.017       .  S
O18          C25   1.279       .  A
O19         Cu22   2.018       .  S
O19          C24   1.279       .  A
O20         Cu22   2.000       .  S
O20          C23   1.277       .  A
Cu21        Cu22   2.378       .  S
C23          C95   1.464       .  S
C24          C29   1.465       .  S
C25          C55   1.463       .  S
C27          N28   1.358       .  A
C27          N32   1.359       .  A
C27         C157   1.486       .  S
N28          C29   1.357       .  A
C29          N30   1.357       .  A
N30          C31   1.359       .  A
C31          N32   1.359       .  A
C31          C91   1.465       .  S
C33          N34   1.360       .  A
C33          N38   1.358       .  A
C33         C162   1.498       .  S
N34          C35   1.358       .  A
C35          N36   1.358       .  A
C35          C50   1.463       .  S
N36          C37   1.357       .  A
C37          N38   1.358       .  A
C37          C78   1.465       .  S
O39         Cu47   2.013   1_554  S
O39          C49   1.278       .  A
O40        Cu247   2.002       .  S
O40          C50   1.277       .  A
O41         Cu47   1.999   1_554  S
O41          C51   1.276       .  A
O42        Cu247   2.008       .  S
O42          C52   1.277       .  A
O43        Cu248   1.995       .  S
O43          C52   1.276       .  A
O44         Cu48   2.016   1_554  S
O44          C51   1.279       .  A
O45        Cu248   2.010       .  S
O45          C50   1.278       .  A
O46         Cu48   1.994   1_554  S
O46          C49   1.275       .  A
Cu47        O240   2.001       .  S
Cu47        O242   2.013       .  S
Cu47        Cu48   2.378       .  S
Cu48        O243   2.004       .  S
Cu48        O245   2.010       .  S
C49         C103   1.461       .  S
C51          C61   1.464       .  S
C53          N54   1.358       .  A
C53          N58   1.361       .  A
C53         C133   1.494       .  S
N54          C55   1.357       .  A
C55          N56   1.357       .  A
N56          C57   1.357       .  A
C57          N58   1.359       .  A
C57          C90   1.465       .  S
C59          N60   1.359       .  A
C59          N64   1.359       .  A
C59         C138   1.498       .  S
N60          C61   1.359       .  A
C61          N62   1.357       .  A
N62          C63   1.357       .  A
C63          N64   1.357       .  A
C63          C75   1.462       .  S
O65         Cu73   2.012       .  S
O65          C75   1.278       .  A
O66         Cu73   1.998       .  S
O66          C76   1.276       .  A
O67         Cu73   2.006       .  S
O67          C77   1.277       .  A
O68         Cu73   2.021       .  S
O68          C78   1.279       .  A
O69         Cu74   1.995       .  S
O69          C78   1.275       .  A
O70         Cu74   2.008       .  S
O70          C77   1.277       .  A
O71         Cu74   2.013       .  S
O71          C76   1.278       .  A
O72         Cu74   1.998       .  S
O72          C75   1.276       .  A
Cu73        Cu74   2.378       .  S
C77         C101   1.463       .  S
O79        Cu287   1.995       .  S
O79          C89   1.276       .  A
O80         Cu87   2.012       .  S
O80          C90   1.278       .  A
O81        Cu287   2.014       .  S
O81          C91   1.278       .  A
O82         Cu87   2.003       .  S
O82          C92   1.276       .  A
O83         Cu88   2.017       .  S
O83          C92   1.279       .  A
O84        Cu288   2.002       .  S
O84          C91   1.276       .  A
O85         Cu88   2.004       .  S
O85          C90   1.277       .  A
O86        Cu288   2.017       .  S
O86          C89   1.278       .  A
Cu87        O279   1.994   1_554  S
Cu87        O281   2.013   1_554  S
Cu87        Cu88   2.378       .  S
Cu88        O284   2.001   1_554  S
Cu88        O286   2.016   1_554  S
C92          C97   1.466       .  S
C93          N98   1.361   1_565  A
C93         N894   1.358       .  A
C93         C114   1.493       .  S
N94          C95   1.356       .  A
N94         C493   1.357       .  A
C95          N96   1.357       .  A
N96         C497   1.358       .  A
C97          N98   1.359       .  A
C97         N896   1.357   1_545  A
C99         N100   1.358   1_565  A
C99         N904   1.355       .  A
C99         C109   1.482       .  S
N100        C101   1.357       .  A
C101        N102   1.358       .  A
N102        C903   1.358   1_545  A
C103        N104   1.358       .  A
C103        N502   1.358       .  A
N104        C499   1.357       .  A
C105        C106   1.407   1_545  A
C105        C110   1.396       .  A
C105        C119   1.444       .  S
C106        C111   1.477       .  S
C106        C907   1.400       .  A
C107        C108   1.401       .  A
C107        C506   1.401       .  A
C107        H126   1.085       .  S
C108        C509   1.417       .  A
C108        C120   1.444       .  S
C109        C110   1.405   1_565  A
C109        C908   1.418       .  A
C110        H125   1.085       .  S
C111        C112   1.398       .  A
C111        C916   1.406   1_565  A
C112        C113   1.400   1_655  A
C112        H127   1.086       .  S
C113        C114   1.422       .  A
C113        C117   1.444       .  S
C114        C915   1.410   1_565  A
C115        C116   1.399   1_455  A
C115        C514   1.410       .  A
C115        H128   1.084       .  S
C116        C511   1.406       .  A
C116        C118   1.445       .  S
C117        N121   1.157       .  T
C118        N122   1.157       .  T
C119        N124   1.157       .  T
C120        N123   1.158       .  T
C129        C130   1.409       .  A
C129        C134   1.400       .  A
C129        C143   1.445       .  S
C130        C135   1.486       .  S
C130        C131   1.402       .  A
C131        C132   1.403       .  A
C131        H150   1.085       .  S
C132        C133   1.421       .  A
C132        C144   1.445       .  S
C133        C134   1.408       .  A
C134        H149   1.084       .  S
C135        C136   1.401       .  A
C135        C140   1.407       .  A
C136        C137   1.401       .  A
C136        H151   1.085       .  S
C137        C138   1.422       .  A
C137        C141   1.444       .  S
C138        C139   1.412       .  A
C139        C140   1.400       .  A
C139        H152   1.084       .  S
C140        C142   1.444       .  S
C141        N145   1.158       .  T
C142        N146   1.157       .  T
C143        N148   1.157       .  T
C144        N147   1.158       .  T
C153        C154   1.409       .  A
C153        C158   1.402       .  A
C153        C167   1.444       .  S
C154        C159   1.485       .  S
C154        C155   1.401       .  A
C155        C156   1.400       .  A
C155        H174   1.085       .  S
C156        C157   1.416       .  A
C156        C168   1.444       .  S
C157        C158   1.407       .  A
C158        H173   1.084       .  S
C159        C160   1.400       .  A
C159        C164   1.407       .  A
C160        C161   1.402       .  A
C160        H175   1.085       .  S
C161        C162   1.423       .  A
C161        C165   1.444       .  S
C162        C163   1.411       .  A
C163        C164   1.400       .  A
C163        H176   1.084       .  S
C164        C166   1.445       .  S
C165        N169   1.158       .  T
C166        N170   1.157       .  T
C167        N172   1.157       .  T
C168        N171   1.157       .  T
C177        C178   1.406       .  A
C177        C182   1.398   1_655  A
C177        C191   1.444       .  S
C178        C583   1.480       .  S
C178        C579   1.399       .  A
C179        C180   1.400   1_655  A
C179        C978   1.399       .  A
C179        H198   1.085       .  S
C180        C181   1.422       .  A
C180        C192   1.444       .  S
C181        C982   1.409   1_545  A
C182        C581   1.410       .  A
C182        H197   1.083       .  S
C183        C978   1.479       .  S
C183        C188   1.408       .  A
C183        C984   1.400   1_545  A
C184        C185   1.400       .  A
C184        C583   1.400       .  A
C184        H199   1.085       .  S
C185        C586   1.420       .  A
C185        C189   1.445       .  S
C186        C187   1.408       .  A
C186        C985   1.420   1_545  A
C187        C188   1.399       .  A
C187        H200   1.085       .  S
C188        C190   1.445       .  S
C189        N193   1.158       .  T
C190        N194   1.157       .  T
C191        N196   1.157       .  T
C192        N195   1.158       .  T
C201        N202   1.356       .  A
C201       N1006   1.360   1_545  A
C201        C381   1.494       .  S
N202        C203   1.356       .  A
C203       N1004   1.357   1_545  A
C203        C289   1.463       .  S
N204        C603   1.358       .  A
N204        C205   1.357       .  A
C205        N206   1.357       .  A
C205        C226   1.462       .  S
N206        C601   1.359       .  A
C207       N1008   1.357   1_545  A
C207        N212   1.360       .  A
C207        C386   1.490       .  S
N208        C607   1.359       .  A
N208        C209   1.359       .  A
C209        N610   1.358       .  A
C209        C252   1.464       .  S
N210       C1009   1.356   1_545  A
N210        C211   1.357       .  A
C211        N212   1.359       .  A
C211        C276   1.463       .  S
O213       Cu221   2.011       .  S
O213        C223   1.278       .  A
O214       Cu221   1.997       .  S
O214        C224   1.276       .  A
O215       Cu221   1.994       .  S
O215        C225   1.275       .  A
O216       Cu221   2.009       .  S
O216        C226   1.277       .  A
O217       Cu222   2.003       .  S
O217        C226   1.277       .  A
O218       Cu222   2.017       .  S
O218        C225   1.279       .  A
O219       Cu222   2.017       .  S
O219        C224   1.279       .  A
O220       Cu222   2.001       .  S
O220        C223   1.277       .  A
Cu221      Cu222   2.378       .  S
C223        C295   1.463       .  S
C224        C229   1.463       .  S
C225        C255   1.463       .  S
C227        N228   1.358       .  A
C227        N232   1.359       .  A
C227        C357   1.486       .  S
N228        C229   1.357       .  A
C229        N230   1.357       .  A
N230        C231   1.358       .  A
C231        N232   1.360       .  A
C231        C291   1.464       .  S
C233        N234   1.361       .  A
C233        N238   1.358       .  A
C233        C362   1.499       .  S
N234        C235   1.359       .  A
C235        N236   1.357       .  A
C235        C250   1.462       .  S
N236        C237   1.356       .  A
C237        N238   1.358       .  A
C237        C278   1.463       .  S
O239       Cu247   2.017       .  S
O239        C249   1.279       .  A
O240        C250   1.276       .  A
O241       Cu247   1.997       .  S
O241        C251   1.276       .  A
O242        C252   1.278       .  A
O243        C252   1.277       .  A
O244       Cu248   2.011       .  S
O244        C251   1.278       .  A
O245        C250   1.278       .  A
O246       Cu248   1.995       .  S
O246        C249   1.276       .  A
Cu247      Cu248   2.379       .  S
C249        C303   1.463       .  S
C251        C261   1.462       .  S
C253        N254   1.357       .  A
C253        N258   1.361       .  A
C253        C333   1.494       .  S
N254        C255   1.357       .  A
C255        N256   1.357       .  A
N256        C257   1.358       .  A
C257        N258   1.360       .  A
C257        C290   1.466       .  S
C259        N260   1.359       .  A
C259        N264   1.359       .  A
C259        C338   1.497       .  S
N260        C261   1.359       .  A
C261        N262   1.357       .  A
N262        C263   1.355       .  A
C263        N264   1.356       .  A
C263        C275   1.461       .  S
O265       Cu273   2.009       .  S
O265        C275   1.277       .  A
O266       Cu273   1.996       .  S
O266        C276   1.275       .  A
O267       Cu273   2.005       .  S
O267        C277   1.277       .  A
O268       Cu273   2.019       .  S
O268        C278   1.279       .  A
O269       Cu274   1.991       .  S
O269        C278   1.275       .  A
O270       Cu274   2.006       .  S
O270        C277   1.277       .  A
O271       Cu274   2.016       .  S
O271        C276   1.279       .  A
O272       Cu274   1.999       .  S
O272        C275   1.276       .  A
Cu273      Cu274   2.378       .  S
C277        C301   1.462       .  S
O279        C289   1.276       .  A
O280       Cu287   2.014       .  S
O280        C290   1.278       .  A
O281        C291   1.278       .  A
O282       Cu287   2.003       .  S
O282        C292   1.276       .  A
O283       Cu288   2.016       .  S
O283        C292   1.279       .  A
O284        C291   1.276       .  A
O285       Cu288   2.006       .  S
O285        C290   1.277       .  A
O286        C289   1.278       .  A
Cu287      Cu288   2.377       .  S
C292        C297   1.465       .  S
C293       N1094   1.358       .  A
C293        N298   1.361   1_565  A
C293        C314   1.495       .  S
N294        C693   1.358       .  A
N294        C295   1.357       .  A
C295        N296   1.357       .  A
N296        C697   1.357       .  A
C297       N1096   1.357   1_545  A
C297        N298   1.359       .  A
C299        N300   1.358   1_565  A
C299       N1104   1.356       .  A
C299        C309   1.481       .  S
N300        C301   1.356       .  A
C301        N302   1.358       .  A
N302       C1103   1.358   1_545  A
C303        N702   1.358       .  A
C303        N304   1.358       .  A
N304        C699   1.357       .  A
C305        C306   1.407   1_545  A
C305        C310   1.396       .  A
C305        C319   1.444       .  S
C306        C311   1.479       .  S
C306       C1107   1.401       .  A
C307        C706   1.401       .  A
C307        C308   1.401       .  A
C307        H326   1.085       .  S
C308        C709   1.418       .  A
C308        C320   1.444       .  S
C309       C1108   1.417       .  A
C309        C310   1.405   1_565  A
C310        H325   1.085       .  S
C311        C312   1.398       .  A
C311       C1116   1.406   1_565  A
C312        C313   1.400   1_655  A
C312        H327   1.086       .  S
C313        C314   1.423       .  A
C313        C317   1.444       .  S
C314       C1115   1.411   1_565  A
C315        C714   1.411       .  A
C315        C316   1.399   1_455  A
C315        H328   1.084       .  S
C316        C711   1.406       .  A
C316        C318   1.445       .  S
C317        N321   1.157       .  T
C318        N322   1.157       .  T
C319        N324   1.157       .  T
C320        N323   1.158       .  T
C329        C330   1.408       .  A
C329        C334   1.400       .  A
C329        C343   1.445       .  S
C330        C335   1.485       .  S
C330        C331   1.401       .  A
C331        C332   1.403       .  A
C331        H350   1.085       .  S
C332        C333   1.422       .  A
C332        C344   1.445       .  S
C333        C334   1.408       .  A
C334        H349   1.084       .  S
C335        C336   1.401       .  A
C335        C340   1.407       .  A
C336        C337   1.402       .  A
C336        H351   1.085       .  S
C337        C338   1.422       .  A
C337        C341   1.444       .  S
C338        C339   1.411       .  A
C339        C340   1.399       .  A
C339        H352   1.084       .  S
C340        C342   1.444       .  S
C341        N345   1.158       .  T
C342        N346   1.157       .  T
C343        N348   1.157       .  T
C344        N347   1.158       .  T
C353        C354   1.409       .  A
C353        C358   1.402       .  A
C353        C367   1.444       .  S
C354        C359   1.485       .  S
C354        C355   1.401       .  A
C355        C356   1.400       .  A
C355        H374   1.085       .  S
C356        C357   1.416       .  A
C356        C368   1.444       .  S
C357        C358   1.407       .  A
C358        H373   1.084       .  S
C359        C360   1.400       .  A
C359        C364   1.407       .  A
C360        C361   1.403       .  A
C360        H375   1.085       .  S
C361        C362   1.423       .  A
C361        C365   1.444       .  S
C362        C363   1.411       .  A
C363        C364   1.400       .  A
C363        H376   1.084       .  S
C364        C366   1.445       .  S
C365        N369   1.158       .  T
C366        N370   1.157       .  T
C367        N372   1.157       .  T
C368        N371   1.157       .  T
C377        C378   1.408       .  A
C377        C382   1.398   1_655  A
C377        C391   1.444       .  S
C378        C783   1.483       .  S
C378        C779   1.401       .  A
C379       C1178   1.398       .  A
C379        C380   1.400   1_655  A
C379        H398   1.085       .  S
C380        C381   1.423       .  A
C380        C392   1.445       .  S
C381       C1182   1.409   1_545  A
C382        C781   1.409       .  A
C382        H397   1.084       .  S
C383       C1178   1.479       .  S
C383       C1184   1.400   1_545  A
C383        C388   1.407       .  A
C384        C783   1.402       .  A
C384        C385   1.400       .  A
C384        H399   1.085       .  S
C385        C786   1.415       .  A
C385        C389   1.444       .  S
C386       C1185   1.421   1_545  A
C386        C387   1.408       .  A
C387        C388   1.399       .  A
C387        H400   1.085       .  S
C388        C390   1.444       .  S
C389        N393   1.157       .  T
C390        N394   1.157       .  T
C391        N396   1.157       .  T
C392        N395   1.158       .  T
C401        N402   1.357       .  A
C401        C581   1.495       .  S
N402        C403   1.357       .  A
C403        C489   1.464       .  S
N404        C803   1.357       .  A
N404        C405   1.357       .  A
C405        N406   1.358       .  A
C405        C426   1.462       .  S
N406        C801   1.360       .  A
C407        N412   1.360       .  A
C407        C586   1.488       .  S
N408        C807   1.357       .  A
N408        C409   1.357       .  A
C409        N810   1.357       .  A
C409        C452   1.461       .  S
N410        C411   1.356       .  A
C411        N412   1.359       .  A
C411        C476   1.463       .  S
O413       Cu421   2.010       .  S
O413        C423   1.278       .  A
O414       Cu421   1.999       .  S
O414        C424   1.276       .  A
O415       Cu421   1.991       .  S
O415        C425   1.275       .  A
O416       Cu421   2.008       .  S
O416        C426   1.277       .  A
O417       Cu422   2.004       .  S
O417        C426   1.277       .  A
O418       Cu422   2.016       .  S
O418        C425   1.279       .  A
O419       Cu422   2.016       .  S
O419        C424   1.278       .  A
O420       Cu422   1.998       .  S
O420        C423   1.276       .  A
Cu421      Cu422   2.378       .  S
C423        C495   1.462       .  S
C424        C429   1.464       .  S
C425        C455   1.461       .  S
C427        N428   1.358       .  A
C427        N432   1.359       .  A
C427        C557   1.486       .  S
N428        C429   1.357       .  A
C429        N430   1.357       .  A
N430        C431   1.358       .  A
C431        N432   1.359       .  A
C431        C491   1.464       .  S
C433        N434   1.360       .  A
C433        N438   1.358       .  A
C433        C562   1.497       .  S
N434        C435   1.358       .  A
C435        N436   1.357       .  A
C435        C450   1.462       .  S
N436        C437   1.356       .  A
C437        N438   1.357       .  A
C437        C478   1.463       .  S
O439       Cu447   2.016   1_554  S
O439        C449   1.279       .  A
O440       Cu647   2.002       .  S
O440        C450   1.277       .  A
O441       Cu447   1.997   1_554  S
O441        C451   1.276       .  A
O442       Cu647   2.010       .  S
O442        C452   1.278       .  A
O443       Cu648   1.998       .  S
O443        C452   1.276       .  A
O444       Cu448   2.015   1_554  S
O444        C451   1.279       .  A
O445       Cu648   2.007       .  S
O445        C450   1.277       .  A
O446       Cu448   1.996   1_554  S
O446        C449   1.276       .  A
Cu447       O640   2.001       .  S
Cu447       O642   2.010       .  S
Cu447      Cu448   2.378       .  S
Cu448       O643   2.000       .  S
Cu448       O645   2.010       .  S
C449        C503   1.463       .  S
C451        C461   1.463       .  S
C453        N454   1.357       .  A
C453        N458   1.361       .  A
C453        C533   1.492       .  S
N454        C455   1.356       .  A
C455        N456   1.356       .  A
N456        C457   1.357       .  A
C457        N458   1.360       .  A
C457        C490   1.464       .  S
C459        N460   1.359       .  A
C459        N464   1.359       .  A
C459        C538   1.497       .  S
N460        C461   1.359       .  A
C461        N462   1.357       .  A
N462        C463   1.356       .  A
C463        N464   1.357       .  A
C463        C475   1.462       .  S
O465       Cu473   2.010       .  S
O465        C475   1.277       .  A
O466       Cu473   1.996       .  S
O466        C476   1.275       .  A
O467       Cu473   2.001       .  S
O467        C477   1.277       .  A
O468       Cu473   2.017       .  S
O468        C478   1.279       .  A
O469       Cu474   1.992       .  S
O469        C478   1.275       .  A
O470       Cu474   2.005       .  S
O470        C477   1.276       .  A
O471       Cu474   2.015       .  S
O471        C476   1.279       .  A
O472       Cu474   2.000       .  S
O472        C475   1.276       .  A
Cu473      Cu474   2.378       .  S
C477        C501   1.460       .  S
O479       Cu687   1.995       .  S
O479        C489   1.276       .  A
O480       Cu487   2.013       .  S
O480        C490   1.278       .  A
O481       Cu687   2.011       .  S
O481        C491   1.278       .  A
O482       Cu487   2.004       .  S
O482        C492   1.276       .  A
O483       Cu488   2.017       .  S
O483        C492   1.279       .  A
O484       Cu688   2.003       .  S
O484        C491   1.277       .  A
O485       Cu488   2.003       .  S
O485        C490   1.276       .  A
O486       Cu688   2.017       .  S
O486        C489   1.278       .  A
Cu487       O679   1.998   1_554  S
Cu487       O681   2.015   1_554  S
Cu487      Cu488   2.377       .  S
Cu488       O684   2.003   1_554  S
Cu488       O686   2.017   1_554  S
C492        C497   1.466       .  S
C493        N498   1.361       .  A
C493        C514   1.495       .  S
N494        C893   1.357       .  A
N494        C495   1.357       .  A
C495        N496   1.357       .  A
N496        C897   1.357       .  A
C497        N498   1.359       .  A
C499        N500   1.357       .  A
C499        C509   1.483       .  S
N500        C501   1.355       .  A
C501        N502   1.357       .  A
C503        N902   1.358       .  A
C503        N504   1.358       .  A
N504        C899   1.358       .  A
C505        C506   1.406       .  A
C505        C510   1.396       .  A
C505        C519   1.444       .  S
C506        C511   1.478       .  S
C507        C906   1.401       .  A
C507        C508   1.401       .  A
C507        H526   1.085       .  S
C508        C909   1.417       .  A
C508        C520   1.444       .  S
C509        C510   1.406       .  A
C510        H525   1.085       .  S
C511        C512   1.398       .  A
C512        C513   1.400   1_655  A
C512        H527   1.086       .  S
C513        C514   1.423       .  A
C513        C517   1.444       .  S
C515        C914   1.410       .  A
C515        C516   1.399   1_455  A
C515        H528   1.084       .  S
C516        C911   1.406       .  A
C516        C518   1.445       .  S
C517        N521   1.157       .  T
C518        N522   1.157       .  T
C519        N524   1.157       .  T
C520        N523   1.157       .  T
C529        C530   1.409       .  A
C529        C534   1.399       .  A
C529        C543   1.445       .  S
C530        C535   1.484       .  S
C530        C531   1.401       .  A
C531        C532   1.402       .  A
C531        H550   1.085       .  S
C532        C533   1.421       .  A
C532        C544   1.445       .  S
C533        C534   1.408       .  A
C534        H549   1.084       .  S
C535        C536   1.400       .  A
C535        C540   1.407       .  A
C536        C537   1.401       .  A
C536        H551   1.085       .  S
C537        C538   1.422       .  A
C537        C541   1.444       .  S
C538        C539   1.411       .  A
C539        C540   1.399       .  A
C539        H552   1.084       .  S
C540        C542   1.444       .  S
C541        N545   1.158       .  T
C542        N546   1.157       .  T
C543        N548   1.157       .  T
C544        N547   1.158       .  T
C553        C554   1.408       .  A
C553        C558   1.401       .  A
C553        C567   1.444       .  S
C554        C559   1.483       .  S
C554        C555   1.401       .  A
C555        C556   1.400       .  A
C555        H574   1.085       .  S
C556        C557   1.416       .  A
C556        C568   1.444       .  S
C557        C558   1.407       .  A
C558        H573   1.084       .  S
C559        C560   1.400       .  A
C559        C564   1.407       .  A
C560        C561   1.402       .  A
C560        H575   1.085       .  S
C561        C562   1.423       .  A
C561        C565   1.444       .  S
C562        C563   1.411       .  A
C563        C564   1.399       .  A
C563        H576   1.084       .  S
C564        C566   1.444       .  S
C565        N569   1.158       .  T
C566        N570   1.157       .  T
C567        N572   1.157       .  T
C568        N571   1.157       .  T
C577        C578   1.406       .  A
C577        C582   1.398   1_655  A
C577        C591   1.444       .  S
C578        C983   1.479       .  S
C578        C979   1.399       .  A
C579        C580   1.401   1_655  A
C579        H598   1.085       .  S
C580        C581   1.423       .  A
C580        C592   1.444       .  S
C582        C981   1.409       .  A
C582        H597   1.083       .  S
C583        C588   1.408       .  A
C584        C983   1.400       .  A
C584        C585   1.401       .  A
C584        H599   1.085       .  S
C585        C986   1.421       .  A
C585        C589   1.445       .  S
C586        C587   1.408       .  A
C587        C588   1.399       .  A
C587        H600   1.085       .  S
C588        C590   1.444       .  S
C589        N593   1.158       .  T
C590        N594   1.157       .  T
C591        N596   1.157       .  T
C592        N595   1.158       .  T
C601        N602   1.358       .  A
C601        C781   1.493       .  S
N602        C603   1.358       .  A
C603        C689   1.465       .  S
N604       C1003   1.357       .  A
N604        C605   1.358       .  A
C605        N606   1.358       .  A
C605        C626   1.462       .  S
N606       C1001   1.360       .  A
C607        N612   1.357       .  A
C607        C786   1.482       .  S
N608       C1007   1.357       .  A
N608        C609   1.357       .  A
C609       N1010   1.358       .  A
C609        C652   1.461       .  S
N610        C611   1.357       .  A
C611        N612   1.356       .  A
C611        C676   1.463       .  S
O613       Cu621   2.012       .  S
O613        C623   1.278       .  A
O614       Cu621   1.998       .  S
O614        C624   1.276       .  A
O615       Cu621   1.991       .  S
O615        C625   1.275       .  A
O616       Cu621   2.006       .  S
O616        C626   1.277       .  A
O617       Cu622   2.005       .  S
O617        C626   1.277       .  A
O618       Cu622   2.018       .  S
O618        C625   1.279       .  A
O619       Cu622   2.015       .  S
O619        C624   1.278       .  A
O620       Cu622   1.998       .  S
O620        C623   1.276       .  A
Cu621      Cu622   2.378       .  S
C623        C695   1.462       .  S
C624        C629   1.464       .  S
C625        C655   1.462       .  S
C627        N628   1.358       .  A
C627        N632   1.360       .  A
C627        C757   1.486       .  S
N628        C629   1.357       .  A
C629        N630   1.357       .  A
N630        C631   1.358       .  A
C631        N632   1.360       .  A
C631        C691   1.465       .  S
C633        N634   1.359       .  A
C633        N638   1.359       .  A
C633        C762   1.499       .  S
N634        C635   1.357       .  A
C635        N636   1.357       .  A
C635        C650   1.463       .  S
N636        C637   1.357       .  A
C637        N638   1.359       .  A
C637        C678   1.466       .  S
O639       Cu647   2.016       .  S
O639        C649   1.278       .  A
O640        C650   1.277       .  A
O641       Cu647   1.995       .  S
O641        C651   1.276       .  A
O642        C652   1.277       .  A
O643        C652   1.276       .  A
O644       Cu648   2.011       .  S
O644        C651   1.278       .  A
O645        C650   1.278       .  A
O646       Cu648   1.991       .  S
O646        C649   1.275       .  A
Cu647      Cu648   2.379       .  S
C649        C703   1.461       .  S
C651        C661   1.462       .  S
C653        N654   1.357       .  A
C653        N658   1.361       .  A
C653        C733   1.494       .  S
N654        C655   1.357       .  A
C655        N656   1.356       .  A
N656        C657   1.357       .  A
C657        N658   1.359       .  A
C657        C690   1.464       .  S
C659        N660   1.358       .  A
C659        N664   1.358       .  A
C659        C738   1.496       .  S
N660        C661   1.358       .  A
C661        N662   1.357       .  A
N662        C663   1.356       .  A
C663        N664   1.356       .  A
C663        C675   1.460       .  S
O665       Cu673   2.010       .  S
O665        C675   1.277       .  A
O666       Cu673   1.995       .  S
O666        C676   1.276       .  A
O667       Cu673   2.004       .  S
O667        C677   1.277       .  A
O668       Cu673   2.019       .  S
O668        C678   1.279       .  A
O669       Cu674   1.998       .  S
O669        C678   1.276       .  A
O670       Cu674   2.011       .  S
O670        C677   1.277       .  A
O671       Cu674   2.016       .  S
O671        C676   1.278       .  A
O672       Cu674   1.998       .  S
O672        C675   1.276       .  A
Cu673      Cu674   2.378       .  S
C677        C701   1.464       .  S
O679        C689   1.276       .  A
O680       Cu687   2.011       .  S
O680        C690   1.278       .  A
O681        C691   1.279       .  A
O682       Cu687   2.000       .  S
O682        C692   1.276       .  A
O683       Cu688   2.018       .  S
O683        C692   1.279       .  A
O684        C691   1.276       .  A
O685       Cu688   2.004       .  S
O685        C690   1.277       .  A
O686        C689   1.279       .  A
Cu687      Cu688   2.378       .  S
C692        C697   1.465       .  S
C693        N698   1.360       .  A
C693        C714   1.495       .  S
N694       C1093   1.358       .  A
N694        C695   1.357       .  A
C695        N696   1.357       .  A
N696       C1097   1.357       .  A
C697        N698   1.358       .  A
C699        N700   1.359       .  A
C699        C709   1.484       .  S
N700        C701   1.357       .  A
C701        N702   1.358       .  A
C703       N1102   1.358       .  A
C703        N704   1.356       .  A
N704       C1099   1.355       .  A
C705        C706   1.407       .  A
C705        C710   1.397       .  A
C705        C719   1.444       .  S
C706        C711   1.479       .  S
C707       C1106   1.400       .  A
C707        C708   1.401       .  A
C707        H726   1.085       .  S
C708       C1109   1.418       .  A
C708        C720   1.445       .  S
C709        C710   1.406       .  A
C710        H725   1.084       .  S
C711        C712   1.398       .  A
C712        C713   1.400   1_655  A
C712        H727   1.086       .  S
C713        C714   1.422       .  A
C713        C717   1.444       .  S
C715       C1114   1.410       .  A
C715        C716   1.399   1_455  A
C715        H728   1.084       .  S
C716       C1111   1.406       .  A
C716        C718   1.445       .  S
C717        N721   1.158       .  T
C718        N722   1.157       .  T
C719        N724   1.157       .  T
C720        N723   1.158       .  T
C729        C730   1.408       .  A
C729        C734   1.399       .  A
C729        C743   1.445       .  S
C730        C735   1.484       .  S
C730        C731   1.401       .  A
C731        C732   1.402       .  A
C731        H750   1.085       .  S
C732        C733   1.422       .  A
C732        C744   1.445       .  S
C733        C734   1.409       .  A
C734        H749   1.084       .  S
C735        C736   1.400       .  A
C735        C740   1.407       .  A
C736        C737   1.401       .  A
C736        H751   1.085       .  S
C737        C738   1.422       .  A
C737        C741   1.444       .  S
C738        C739   1.411       .  A
C739        C740   1.399       .  A
C739        H752   1.084       .  S
C740        C742   1.444       .  S
C741        N745   1.158       .  T
C742        N746   1.157       .  T
C743        N748   1.157       .  T
C744        N747   1.158       .  T
C753        C754   1.410       .  A
C753        C758   1.402       .  A
C753        C767   1.444       .  S
C754        C759   1.486       .  S
C754        C755   1.402       .  A
C755        C756   1.400       .  A
C755        H774   1.085       .  S
C756        C757   1.416       .  A
C756        C768   1.444       .  S
C757        C758   1.406       .  A
C758        H773   1.084       .  S
C759        C760   1.401       .  A
C759        C764   1.407       .  A
C760        C761   1.402       .  A
C760        H775   1.085       .  S
C761        C762   1.422       .  A
C761        C765   1.444       .  S
C762        C763   1.412       .  A
C763        C764   1.400       .  A
C763        H776   1.084       .  S
C764        C766   1.445       .  S
C765        N769   1.157       .  T
C766        N770   1.157       .  T
C767        N772   1.157       .  T
C768        N771   1.157       .  T
C777        C778   1.406       .  A
C777        C782   1.398   1_655  A
C777        C791   1.444       .  S
C778       C1183   1.479       .  S
C778       C1179   1.398       .  A
C779        C780   1.401   1_655  A
C779        H798   1.085       .  S
C780        C781   1.421       .  A
C780        C792   1.444       .  S
C782       C1181   1.409       .  A
C782        H797   1.084       .  S
C783        C788   1.410       .  A
C784       C1183   1.400       .  A
C784        C785   1.400       .  A
C784        H799   1.085       .  S
C785       C1186   1.419       .  A
C785        C789   1.445       .  S
C786        C787   1.406       .  A
C787        C788   1.399       .  A
C787        H800   1.085       .  S
C788        C790   1.444       .  S
C789        N793   1.158       .  T
C790        N794   1.157       .  T
C791        N796   1.157       .  T
C792        N795   1.158       .  T
C801        N802   1.356       .  A
C801        C981   1.493       .  S
N802        C803   1.356       .  A
C803        C889   1.461       .  S
N804        C805   1.358       .  A
C805        N806   1.358       .  A
C805        C826   1.463       .  S
C807        N812   1.360       .  A
C807        C986   1.490       .  S
N808        C809   1.356       .  A
C809        C852   1.459       .  S
N810        C811   1.357       .  A
C811        N812   1.359       .  A
C811        C876   1.465       .  S
O813       Cu821   2.012       .  S
O813        C823   1.278       .  A
O814       Cu821   1.998       .  S
O814        C824   1.276       .  A
O815       Cu821   1.991       .  S
O815        C825   1.275       .  A
O816       Cu821   2.007       .  S
O816        C826   1.277       .  A
O817       Cu822   2.004       .  S
O817        C826   1.277       .  A
O818       Cu822   2.017       .  S
O818        C825   1.279       .  A
O819       Cu822   2.015       .  S
O819        C824   1.278       .  A
O820       Cu822   2.000       .  S
O820        C823   1.276       .  A
Cu821      Cu822   2.378       .  S
C823        C895   1.463       .  S
C824        C829   1.463       .  S
C825        C855   1.462       .  S
C827        N828   1.358       .  A
C827        N832   1.359       .  A
C827        C957   1.485       .  S
N828        C829   1.357       .  A
C829        N830   1.357       .  A
N830        C831   1.358       .  A
C831        N832   1.359       .  A
C831        C891   1.463       .  S
C833        N834   1.360       .  A
C833        N838   1.359       .  A
C833        C962   1.498       .  S
N834        C835   1.357       .  A
C835        N836   1.357       .  A
C835        C850   1.461       .  S
N836        C837   1.356       .  A
C837        N838   1.359       .  A
C837        C878   1.464       .  S
O839       Cu847   2.015   1_554  S
O839        C849   1.278       .  A
O840      Cu1047   2.000       .  S
O840        C850   1.276       .  A
O841       Cu847   1.997   1_554  S
O841        C851   1.276       .  A
O842      Cu1047   2.010       .  S
O842        C852   1.278       .  A
O843      Cu1048   1.994       .  S
O843        C852   1.276       .  A
O844       Cu848   2.011   1_554  S
O844        C851   1.278       .  A
O845      Cu1048   2.008       .  S
O845        C850   1.277       .  A
O846       Cu848   1.990   1_554  S
O846        C849   1.275       .  A
Cu847      O1040   2.002       .  S
Cu847      O1042   2.010       .  S
Cu847      Cu848   2.379       .  S
Cu848      O1043   1.995       .  S
Cu848      O1045   2.007       .  S
C849        C903   1.461       .  S
C851        C861   1.463       .  S
C853        N854   1.357       .  A
C853        N858   1.361       .  A
C853        C933   1.493       .  S
N854        C855   1.357       .  A
C855        N856   1.356       .  A
N856        C857   1.357       .  A
C857        N858   1.360       .  A
C857        C890   1.464       .  S
C859        N860   1.358       .  A
C859        N864   1.359       .  A
C859        C938   1.496       .  S
N860        C861   1.358       .  A
C861        N862   1.358       .  A
N862        C863   1.357       .  A
C863        N864   1.356       .  A
C863        C875   1.463       .  S
O865       Cu873   2.013       .  S
O865        C875   1.278       .  A
O866       Cu873   2.000       .  S
O866        C876   1.276       .  A
O867       Cu873   2.005       .  S
O867        C877   1.277       .  A
O868       Cu873   2.020       .  S
O868        C878   1.280       .  A
O869       Cu874   1.993       .  S
O869        C878   1.275       .  A
O870       Cu874   2.006       .  S
O870        C877   1.277       .  A
O871       Cu874   2.016       .  S
O871        C876   1.279       .  A
O872       Cu874   1.999       .  S
O872        C875   1.276       .  A
Cu873      Cu874   2.378       .  S
C877        C901   1.462       .  S
O879      Cu1087   1.993       .  S
O879        C889   1.276       .  A
O880       Cu887   2.011       .  S
O880        C890   1.278       .  A
O881      Cu1087   2.010       .  S
O881        C891   1.278       .  A
O882       Cu887   1.998       .  S
O882        C892   1.276       .  A
O883       Cu888   2.017       .  S
O883        C892   1.279       .  A
O884      Cu1088   2.001       .  S
O884        C891   1.276       .  A
O885       Cu888   2.005       .  S
O885        C890   1.277       .  A
O886      Cu1088   2.014       .  S
O886        C889   1.278       .  A
Cu887      O1079   1.994   1_554  S
Cu887      O1081   2.011   1_554  S
Cu887      Cu888   2.378       .  S
Cu888      O1084   2.003   1_554  S
Cu888      O1086   2.017   1_554  S
C892        C897   1.464       .  S
C893        N898   1.360       .  A
C893        C914   1.493       .  S
N894        C895   1.357       .  A
C895        N896   1.357       .  A
C897        N898   1.358       .  A
C899        N900   1.358       .  A
C899        C909   1.484       .  S
N900        C901   1.356       .  A
C901        N902   1.358       .  A
C903        N904   1.356       .  A
C905        C906   1.406       .  A
C905        C910   1.397       .  A
C905        C919   1.444       .  S
C906        C911   1.477       .  S
C907        C908   1.401       .  A
C907        H926   1.085       .  S
C908        C920   1.445       .  S
C909        C910   1.406       .  A
C910        H925   1.084       .  S
C911        C912   1.398       .  A
C912        C913   1.400   1_655  A
C912        H927   1.086       .  S
C913        C914   1.422       .  A
C913        C917   1.444       .  S
C915        C916   1.399   1_455  A
C915        H928   1.084       .  S
C916        C918   1.445       .  S
C917        N921   1.157       .  T
C918        N922   1.157       .  T
C919        N924   1.157       .  T
C920        N923   1.158       .  T
C929        C930   1.409       .  A
C929        C934   1.399       .  A
C929        C943   1.445       .  S
C930        C935   1.485       .  S
C930        C931   1.401       .  A
C931        C932   1.403       .  A
C931        H950   1.085       .  S
C932        C933   1.422       .  A
C932        C944   1.445       .  S
C933        C934   1.408       .  A
C934        H949   1.084       .  S
C935        C936   1.401       .  A
C935        C940   1.407       .  A
C936        C937   1.401       .  A
C936        H951   1.086       .  S
C937        C938   1.422       .  A
C937        C941   1.444       .  S
C938        C939   1.411       .  A
C939        C940   1.399       .  A
C939        H952   1.084       .  S
C940        C942   1.444       .  S
C941        N945   1.158       .  T
C942        N946   1.157       .  T
C943        N948   1.157       .  T
C944        N947   1.158       .  T
C953        C954   1.409       .  A
C953        C958   1.401       .  A
C953        C967   1.444       .  S
C954        C959   1.485       .  S
C954        C955   1.402       .  A
C955        C956   1.400       .  A
C955        H974   1.085       .  S
C956        C957   1.416       .  A
C956        C968   1.444       .  S
C957        C958   1.407       .  A
C958        H973   1.084       .  S
C959        C960   1.401       .  A
C959        C964   1.407       .  A
C960        C961   1.402       .  A
C960        H975   1.084       .  S
C961        C962   1.422       .  A
C961        C965   1.444       .  S
C962        C963   1.411       .  A
C963        C964   1.399       .  A
C963        H976   1.084       .  S
C964        C966   1.445       .  S
C965        N969   1.158       .  T
C966        N970   1.157       .  T
C967        N972   1.157       .  T
C968        N971   1.157       .  T
C977        C978   1.406   1_565  A
C977        C982   1.398   1_655  A
C977        C991   1.444       .  S
C979        C980   1.401   1_655  A
C979        H998   1.085       .  S
C980        C981   1.422       .  A
C980        C992   1.445       .  S
C982        H997   1.084       .  S
C983        C988   1.407       .  A
C984        C985   1.400       .  A
C984        H999   1.085       .  S
C985        C989   1.445       .  S
C986        C987   1.408       .  A
C987        C988   1.399       .  A
C987       H1000   1.085       .  S
C988        C990   1.444       .  S
C989        N993   1.158       .  T
C990        N994   1.157       .  T
C991        N996   1.157       .  T
C992        N995   1.158       .  T
C1001      N1002   1.357       .  A
C1001      C1181   1.494       .  S
N1002      C1003   1.356       .  A
C1003      C1089   1.463       .  S
N1004      C1005   1.358       .  A
C1005      N1006   1.358       .  A
C1005      C1026   1.463       .  S
C1007      N1012   1.359       .  A
C1007      C1186   1.488       .  S
N1008      C1009   1.356       .  A
C1009      C1052   1.459       .  S
N1010      C1011   1.358       .  A
C1011      N1012   1.358       .  A
C1011      C1076   1.465       .  S
O1013     Cu1021   2.012       .  S
O1013      C1023   1.278       .  A
O1014     Cu1021   1.998       .  S
O1014      C1024   1.276       .  A
O1015     Cu1021   1.991       .  S
O1015      C1025   1.275       .  A
O1016     Cu1021   2.007       .  S
O1016      C1026   1.277       .  A
O1017     Cu1022   2.006       .  S
O1017      C1026   1.277       .  A
O1018     Cu1022   2.018       .  S
O1018      C1025   1.279       .  A
O1019     Cu1022   2.015       .  S
O1019      C1024   1.278       .  A
O1020     Cu1022   1.999       .  S
O1020      C1023   1.276       .  A
Cu1021    Cu1022   2.378       .  S
C1023      C1095   1.463       .  S
C1024      C1029   1.464       .  S
C1025      C1055   1.461       .  S
C1027      N1028   1.358       .  A
C1027      N1032   1.359       .  A
C1027      C1157   1.487       .  S
N1028      C1029   1.357       .  A
C1029      N1030   1.357       .  A
N1030      C1031   1.358       .  A
C1031      N1032   1.359       .  A
C1031      C1091   1.464       .  S
C1033      N1034   1.359       .  A
C1033      N1038   1.359       .  A
C1033      C1162   1.498       .  S
N1034      C1035   1.357       .  A
C1035      N1036   1.357       .  A
C1035      C1050   1.462       .  S
N1036      C1037   1.357       .  A
C1037      N1038   1.359       .  A
C1037      C1078   1.465       .  S
O1039     Cu1047   2.013       .  S
O1039      C1049   1.278       .  A
O1040      C1050   1.277       .  A
O1041     Cu1047   1.996       .  S
O1041      C1051   1.276       .  A
O1042      C1052   1.278       .  A
O1043      C1052   1.276       .  A
O1044     Cu1048   2.009       .  S
O1044      C1051   1.278       .  A
O1045      C1050   1.277       .  A
O1046     Cu1048   1.992       .  S
O1046      C1049   1.275       .  A
Cu1047    Cu1048   2.379       .  S
C1049      C1103   1.461       .  S
C1051      C1061   1.461       .  S
C1053      N1054   1.357       .  A
C1053      N1058   1.361       .  A
C1053      C1133   1.492       .  S
N1054      C1055   1.357       .  A
C1055      N1056   1.356       .  A
N1056      C1057   1.357       .  A
C1057      N1058   1.359       .  A
C1057      C1090   1.463       .  S
C1059      N1060   1.358       .  A
C1059      N1064   1.359       .  A
C1059      C1138   1.497       .  S
N1060      C1061   1.358       .  A
C1061      N1062   1.357       .  A
N1062      C1063   1.356       .  A
C1063      N1064   1.357       .  A
C1063      C1075   1.462       .  S
O1065     Cu1073   2.012       .  S
O1065      C1075   1.278       .  A
O1066     Cu1073   1.999       .  S
O1066      C1076   1.276       .  A
O1067     Cu1073   2.007       .  S
O1067      C1077   1.277       .  A
O1068     Cu1073   2.020       .  S
O1068      C1078   1.279       .  A
O1069     Cu1074   1.997       .  S
O1069      C1078   1.276       .  A
O1070     Cu1074   2.012       .  S
O1070      C1077   1.277       .  A
O1071     Cu1074   2.016       .  S
O1071      C1076   1.278       .  A
O1072     Cu1074   1.998       .  S
O1072      C1075   1.276       .  A
Cu1073    Cu1074   2.378       .  S
C1077      C1101   1.465       .  S
O1079      C1089   1.276       .  A
O1080     Cu1087   2.010       .  S
O1080      C1090   1.278       .  A
O1081      C1091   1.278       .  A
O1082     Cu1087   1.999       .  S
O1082      C1092   1.276       .  A
O1083     Cu1088   2.016       .  S
O1083      C1092   1.279       .  A
O1084      C1091   1.276       .  A
O1085     Cu1088   2.002       .  S
O1085      C1090   1.276       .  A
O1086      C1089   1.278       .  A
Cu1087    Cu1088   2.378       .  S
C1092      C1097   1.464       .  S
C1093      N1098   1.360       .  A
C1093      C1114   1.493       .  S
N1094      C1095   1.357       .  A
C1095      N1096   1.356       .  A
C1097      N1098   1.358       .  A
C1099      N1100   1.359       .  A
C1099      C1109   1.483       .  S
N1100      C1101   1.358       .  A
C1101      N1102   1.359       .  A
C1103      N1104   1.357       .  A
C1105      C1106   1.406       .  A
C1105      C1110   1.397       .  A
C1105      C1119   1.444       .  S
C1106      C1111   1.477       .  S
C1107      C1108   1.401       .  A
C1107      H1126   1.085       .  S
C1108      C1120   1.445       .  S
C1109      C1110   1.405       .  A
C1110      H1125   1.085       .  S
C1111      C1112   1.398       .  A
C1112      C1113   1.400   1_655  A
C1112      H1127   1.086       .  S
C1113      C1114   1.422       .  A
C1113      C1117   1.444       .  S
C1115      C1116   1.399   1_455  A
C1115      H1128   1.084       .  S
C1116      C1118   1.445       .  S
C1117      N1121   1.157       .  T
C1118      N1122   1.157       .  T
C1119      N1124   1.157       .  T
C1120      N1123   1.158       .  T
C1129      C1130   1.410       .  A
C1129      C1134   1.399       .  A
C1129      C1143   1.445       .  S
C1130      C1135   1.487       .  S
C1130      C1131   1.402       .  A
C1131      C1132   1.402       .  A
C1131      H1150   1.085       .  S
C1132      C1133   1.420       .  A
C1132      C1144   1.445       .  S
C1133      C1134   1.407       .  A
C1134      H1149   1.084       .  S
C1135      C1136   1.401       .  A
C1135      C1140   1.408       .  A
C1136      C1137   1.400       .  A
C1136      H1151   1.086       .  S
C1137      C1138   1.422       .  A
C1137      C1141   1.444       .  S
C1138      C1139   1.411       .  A
C1139      C1140   1.399       .  A
C1139      H1152   1.084       .  S
C1140      C1142   1.444       .  S
C1141      N1145   1.158       .  T
C1142      N1146   1.157       .  T
C1143      N1148   1.157       .  T
C1144      N1147   1.158       .  T
C1153      C1154   1.408       .  A
C1153      C1158   1.401       .  A
C1153      C1167   1.444       .  S
C1154      C1159   1.483       .  S
C1154      C1155   1.401       .  A
C1155      C1156   1.400       .  A
C1155      H1174   1.085       .  S
C1156      C1157   1.417       .  A
C1156      C1168   1.444       .  S
C1157      C1158   1.407       .  A
C1158      H1173   1.084       .  S
C1159      C1160   1.400       .  A
C1159      C1164   1.406       .  A
C1160      C1161   1.402       .  A
C1160      H1175   1.084       .  S
C1161      C1162   1.422       .  A
C1161      C1165   1.444       .  S
C1162      C1163   1.412       .  A
C1163      C1164   1.399       .  A
C1163      H1176   1.084       .  S
C1164      C1166   1.445       .  S
C1165      N1169   1.157       .  T
C1166      N1170   1.157       .  T
C1167      N1172   1.157       .  T
C1168      N1171   1.157       .  T
C1177      C1178   1.406   1_565  A
C1177      C1182   1.398   1_655  A
C1177      C1191   1.444       .  S
C1179      C1180   1.400   1_655  A
C1179      H1198   1.085       .  S
C1180      C1181   1.423       .  A
C1180      C1192   1.444       .  S
C1182      H1197   1.084       .  S
C1183      C1188   1.407       .  A
C1184      C1185   1.400       .  A
C1184      H1199   1.085       .  S
C1185      C1189   1.445       .  S
C1186      C1187   1.408       .  A
C1187      C1188   1.399       .  A
C1187      H1200   1.085       .  S
C1188      C1190   1.444       .  S
C1189      N1193   1.158       .  T
C1190      N1194   1.157       .  T
C1191      N1196   1.157       .  T
C1192      N1195   1.158       .  T
