geometry optimzed in LAMMPS
_audit_creation_date              2020-11-30 
_audit_creation_method            'lammps2cif' 
_symmetry_space_group_name_H-M    'P1' 
_symmetry_Int_Tables_number       1 
_symmetry_cell_setting            triclinic 
loop_ 
_symmetry_equiv_pos_as_xyz 
  x,y,z 
_cell_length_a                    42.3754099 
_cell_length_b                    41.83614565006085 
_cell_length_c                    31.649963782631435 
_cell_angle_alpha                 89.62791342415383 
_cell_angle_beta                  90.3143381688471 
_cell_angle_gamma                 119.76846626636053 
loop_ 
_atom_site_label 
_atom_site_type_symbol 
_atom_site_fract_x 
_atom_site_fract_y 
_atom_site_fract_z 
_atom_site_charge 
Fe1        Fe  0.37744110  0.18772381  0.58758896     1.65800
Fe2        Fe  0.45879995  0.20829062  0.63097604     1.73200
Fe3        Fe  0.45506106  0.24884191  0.53746955     1.54400
O4          O  0.41983956  0.20965471  0.49395673    -0.82500
O5          O  0.49370667  0.26371296  0.63554946    -0.80800
O6          O  0.37440538  0.16393059  0.52996446    -0.85000
O7          O  0.37033945  0.22776692  0.55831372    -0.79900
O8          O  0.49000402  0.22901531  0.52937701    -0.81600
O9          O  0.42743956  0.21478370  0.67713834    -0.84400
C10         C  0.38960835  0.25935786  0.54221522     0.96400
C11         C  0.39126943  0.17795288  0.49556947     1.03800
O12         O  0.43061675  0.21490503  0.58526169    -1.13400
O13         O  0.42757010  0.15149843  0.63526064    -0.75800
O14         O  0.37283029  0.14169158  0.61764207    -0.79300
O15         O  0.42358648  0.27372341  0.53794663    -0.80000
C16         C  0.39340460  0.13102072  0.63377963     0.95300
O17         O  0.37862432  0.21093182  0.64493815    -0.77900
O18         O  0.49327294  0.20198823  0.58883500    -0.83100
C19         C  0.50402542  0.29243126  0.61333893     0.97900
C20         C  0.50277786  0.21231260  0.55076594     1.03800
O21         O  0.49256116  0.29159823  0.57586827    -0.78800
C22         C  0.39878361  0.21754424  0.67740933     1.02100
Fe23       Fe  0.31314881  0.19167003  0.91475510     1.65800
Fe24       Fe  0.28770717  0.24328048  0.96815318     1.73200
Fe25       Fe  0.25901474  0.21906609  0.86828863     1.54400
O26         O  0.29701606  0.21940841  0.82589838    -0.82500
O27         O  0.23287416  0.21158299  0.96929361    -0.80800
O28         O  0.34270631  0.22311617  0.86456538    -0.85000
O29         O  0.27550834  0.15156515  0.87390952    -0.79900
O30         O  0.28838935  0.27524856  0.86678386    -0.81600
O31         O  0.28815088  0.20329064  0.00709258    -0.84400
C32         C  0.24361069  0.14190407  0.86042535     0.96400
C33         C  0.32959023  0.22552603  0.82932217     1.03800
O34         O  0.28712361  0.21841187  0.91684434    -1.13400
O35         O  0.34368024  0.27380247  0.97126734    -0.75800
O36         O  0.35425016  0.22804213  0.95557086    -0.79300
O37         O  0.22913889  0.16204699  0.86492762    -0.80000
C38         C  0.36368295  0.25909623  0.97253417     0.95300
O39         O  0.28443576  0.15918073  0.96501792    -0.77900
O40         O  0.28569893  0.28651220  0.93487210    -0.83100
C41         C  0.21229812  0.21722079  0.94559115     0.97900
C42         C  0.28871729  0.29594125  0.89586229     1.03800
O43         O  0.21803257  0.22132646  0.90570968    -0.78800
C44         C  0.28231888  0.17073176  0.00127699     1.02100
Fe45       Fe  0.18029033  0.37879638  0.75608919     1.65800
Fe46       Fe  0.24399590  0.45879008  0.79832544     1.73200
Fe47       Fe  0.20487640  0.45749466  0.70307511     1.54400
O48         O  0.20574583  0.41750049  0.66343658    -0.82500
O49         O  0.22651485  0.49644045  0.80193348    -0.80800
O50         O  0.20558079  0.37316472  0.70370504    -0.85000
O51         O  0.13880165  0.37395850  0.71686090    -0.79900
O52         O  0.25962826  0.48841440  0.69547933    -0.81600
O53         O  0.20363378  0.42681830  0.84303447    -0.84400
C54         C  0.12901889  0.39544115  0.70082400     0.96400
C55         C  0.20820594  0.38821100  0.66777038     1.03800
O56         O  0.21011023  0.43217185  0.75235458    -1.13400
O57         O  0.26564698  0.42390710  0.80193354    -0.75800
O58         O  0.21454839  0.37090586  0.79704206    -0.79300
O59         O  0.14881715  0.42996605  0.70290810    -0.80000
C60         C  0.24698667  0.38983913  0.81013214     0.95300
O61         O  0.15491621  0.38492868  0.80748716    -0.77900
O62         O  0.28696081  0.49325341  0.75722380    -0.83100
C63         C  0.21259859  0.51001050  0.77719322     0.97900
C64         C  0.28804342  0.50093380  0.71786545     1.03800
O65         O  0.20399583  0.49932237  0.73900420    -0.78800
C66         C  0.17009258  0.40165753  0.84156795     1.02100
Fe67       Fe  0.12019844  0.31492727  0.08368751     1.65800
Fe68       Fe  0.04112758  0.29103959  0.13326030     1.73200
Fe69       Fe  0.04115834  0.25207278  0.03757143     1.54400
O70         O  0.07267393  0.29303774  0.99361081    -0.82500
O71         O  0.00849505  0.23555023  0.13817677    -0.80800
O72         O  0.11811196  0.33954080  0.02845627    -0.85000
O73         O  0.12756426  0.27774704  0.04962721    -0.79900
O74         O  0.00417649  0.27007178  0.03400579    -0.81600
O75         O  0.07705763  0.28709130  0.17581951    -0.84400
C76         C  0.10947192  0.24661624  0.03234801     0.96400
C77         C  0.09991035  0.32565077  0.99481002     1.03800
O78         O  0.06723718  0.28576332  0.08487607    -1.13400
O79         O  0.07007792  0.34774193  0.13661817    -0.75800
O80         O  0.12459908  0.35893342  0.11683062    -0.79300
O81         O  0.07504986  0.22959238  0.03189388    -0.80000
C82         C  0.10399899  0.36883708  0.13387599     0.95300
O83         O  0.12392893  0.29118387  0.13930462    -0.77900
O84         O  0.00285642  0.29541070  0.09529096    -0.83100
C85         C  0.99696764  0.20687522  0.11588761     0.97900
C86         C  0.99205825  0.28596217  0.05741027     1.03800
O87         O  0.00688118  0.20803050  0.07761382    -0.78800
C88         C  0.10641440  0.28560722  0.17371536     1.02100
Fe89       Fe  0.18470824  0.30897196  0.41938548     1.65800
Fe90       Fe  0.20342846  0.24712455  0.46413530     1.73200
Fe91       Fe  0.24976700  0.29618250  0.37697908     1.54400
O92         O  0.21318496  0.29477376  0.33026650    -0.82500
O93         O  0.25732677  0.26777040  0.47561727    -0.80800
O94         O  0.16234499  0.28460734  0.36301693    -0.85000
O95         O  0.22237524  0.35460196  0.38592470    -0.79900
O96         O  0.23194203  0.24252932  0.36381566    -0.81600
O97         O  0.20420244  0.28414914  0.51054600    -0.84400
C98         C  0.25566342  0.36843094  0.37707552     0.96400
C99         C  0.17965686  0.28640099  0.32946881     1.03800
O100        O  0.21268753  0.28360738  0.42023500    -1.13400
O101        O  0.14744422  0.22077929  0.46015224    -0.75800
O102        O  0.14032344  0.26922792  0.45163407    -0.79300
O103        O  0.27286204  0.35186481  0.38538327    -0.78200
C104        C  0.12846319  0.23626155  0.46305015     0.95300
O105        O  0.20726692  0.33264359  0.47605103    -0.77900
O106        O  0.20304177  0.20862431  0.42028984    -0.83100
C107        C  0.28719326  0.28580575  0.45632536     0.97900
C108        C  0.21543959  0.21180983  0.38266314     1.03800
O109        O  0.28896346  0.29804051  0.41898516    -0.78800
C110        C  0.20864305  0.31697054  0.51008175     1.02100
Fe111      Fe  0.31449894  0.12204570  0.24530364     1.65800
Fe112      Fe  0.25199860  0.04314942  0.29417254     1.73200
Fe113      Fe  0.29297048  0.03832565  0.20334196     1.54400
O114        O  0.28436936  0.06772846  0.15634507    -0.82500
O115        O  0.26760874  0.00446370  0.30072928    -0.80800
O116        O  0.29608279  0.12160677  0.18471382    -0.85000
O117        O  0.36136341  0.12527335  0.22138368    -0.79900
O118        O  0.23855629  0.00086246  0.20084652    -0.81600
O119        O  0.29112687  0.07491990  0.33863590    -0.84400
C120        C  0.37030691  0.10457536  0.20200492     0.96400
C121        C  0.28673588  0.09924117  0.15384559     1.03800
O122        O  0.28662671  0.06799859  0.24760897    -1.13400
O123        O  0.23116378  0.07813789  0.29699597    -0.75800
O124        O  0.27374939  0.13057922  0.26914142    -0.79300
O125        O  0.34828736  0.07087495  0.19572248    -0.80000
C126        C  0.24440681  0.11208097  0.28949632     0.95300
O127        O  0.33415361  0.12533664  0.30600381    -0.77900
O128        O  0.20943990  0.00942230  0.25394087    -0.83100
C129        C  0.28792007  0.99437509  0.28304376     0.97900
C130        C  0.20952293  0.99393501  0.21958082     1.03800
O131        O  0.30228885  0.00652608  0.24709551    -0.78800
C132        C  0.32059052  0.10577045  0.33910381     1.02100
C133        C  0.21772418  0.18404775  0.31402538    -0.10000
C134        C  0.21297665  0.18001392  0.35838793     0.06200
C135        C  0.21237623  0.14918140  0.37764152    -0.03800
C136        C  0.21895292  0.12514727  0.35325779    -0.08200
C137        C  0.22755868  0.13175321  0.30999695     0.05300
C138        C  0.22568874  0.16088490  0.29013590    -0.03200
Br139      Br  0.23506801  0.17103608  0.23083619    -0.02900
H140        H  0.21753217  0.20689752  0.29794989     0.09200
H141        H  0.22045095  0.10291493  0.36909044     0.07300
Br142      Br  0.20765221  0.14072944  0.43748858    -0.03400
C143        C  0.26076258  0.39686596  0.30803085    -0.10000
C144        C  0.27227761  0.40130788  0.35025696     0.06200
C145        C  0.29495662  0.43675336  0.36624034    -0.03800
C146        C  0.30325250  0.46740507  0.34075766    -0.08200
C147        C  0.28939750  0.46292502  0.29937898     0.05300
C148        C  0.26908698  0.42730041  0.28252718    -0.03200
Br149      Br  0.24672637  0.41838855  0.22766454    -0.02900
H150        H  0.24308486  0.36950051  0.29568369     0.09200
H151        H  0.31828858  0.49472007  0.35423758     0.07300
Br152      Br  0.31197042  0.44441095  0.42349736    -0.03400
C153        C  0.17302088  0.46729158  0.15299846    -0.10000
C154        C  0.17528586  0.46741242  0.19741063     0.06200
C155        C  0.14767262  0.43756326  0.22020619    -0.03800
C156        C  0.12092967  0.40687982  0.19830203    -0.08200
C157        C  0.12160507  0.40526449  0.15401799     0.05300
C158        C  0.14675406  0.43648526  0.13134401    -0.03200
Br159      Br  0.14822942  0.43682735  0.07071443    -0.02900
H160        H  0.19347518  0.49022087  0.13486253     0.09200
H161        H  0.10196281  0.38273769  0.21604873     0.07300
Br162      Br  0.14812141  0.43431305  0.28071080    -0.03400
C163        C  0.40896871  0.11808933  0.13825247    -0.10000
C164        C  0.40668001  0.12174394  0.18215746     0.06200
C165        C  0.43783201  0.14745748  0.20401074    -0.03800
C166        C  0.46901795  0.17167542  0.18154193    -0.08200
C167        C  0.46957589  0.17203963  0.13692593     0.05300
C168        C  0.43994201  0.14312679  0.11539133    -0.03200
Br169      Br  0.43791558  0.13880289  0.05497896    -0.02900
H170        H  0.38529308  0.09790620  0.12107288     0.09200
H171        H  0.49195625  0.19257652  0.19913560     0.07300
Br172      Br  0.43826143  0.15226374  0.26430141    -0.03400
C173        C  0.15806240  0.28518185  0.21172495    -0.10000
C174        C  0.12237605  0.27948108  0.21307934     0.06200
C175        C  0.10444479  0.27089952  0.25257117    -0.03800
C176        C  0.12332275  0.27178415  0.28931303    -0.08200
C177        C  0.15999268  0.28047473  0.28837895     0.05300
C178        C  0.17675065  0.28540922  0.24848063    -0.03200
Br179      Br  0.22499999  0.29307670  0.24076030    -0.02900
H180        H  0.17222928  0.29067675  0.18189522     0.09200
H181        H  0.10910666  0.26637562  0.31909780     0.07300
Br182      Br  0.05432260  0.25752523  0.25986205    -0.03400
C183        C  0.11466171  0.35519271  0.87901393    -0.10000
C184        C  0.14841500  0.38804297  0.88117610     0.06200
C185        C  0.16237167  0.40279032  0.92151627    -0.03800
C186        C  0.14423024  0.38315575  0.95775665    -0.08200
C187        C  0.11278336  0.34816784  0.95541630     0.05300
C188        C  0.09728311  0.33484714  0.91515669    -0.03200
Br189      Br  0.05454965  0.28789090  0.90534239    -0.02900
H190        H  0.10281119  0.34338624  0.84868744     0.09200
H191        H  0.15641434  0.39459414  0.98807320     0.07300
Br192      Br  0.20744621  0.44763856  0.93078117    -0.03400
C193        C  0.22080935  0.39023736  0.59065995    -0.10000
C194        C  0.21277322  0.37060059  0.62893809     0.06200
C195        C  0.20679069  0.33406910  0.62795640    -0.03800
C196        C  0.20731045  0.31794971  0.58932188    -0.08200
C197        C  0.21358023  0.33711347  0.55078250     0.05300
C198        C  0.22149804  0.37431037  0.55220546    -0.03200
Br199      Br  0.23321159  0.40611185  0.50364227    -0.02900
H200        H  0.22577847  0.41812151  0.59023263     0.09200
H201        H  0.20137024  0.28971913  0.58943473     0.07300
Br202      Br  0.19535121  0.30296529  0.67704091    -0.03400
C203        C  0.29036052  0.12276034  0.03773699    -0.10000
C204        C  0.27622326  0.14680902  0.03840083     0.06200
C205        C  0.26055129  0.15036281  0.07605799    -0.03800
C206        C  0.26258032  0.13297199  0.11291338    -0.08200
C207        C  0.27941436  0.11136396  0.11298004     0.05300
C208        C  0.29210734  0.10508445  0.07450024    -0.03200
Br209      Br  0.31598273  0.07639932  0.07046854    -0.02900
H210        H  0.30232514  0.11948211  0.00907069     0.09200
H211        H  0.25172697  0.13711320  0.14200913     0.07300
Br212      Br  0.23566279  0.17803824  0.07941981    -0.03400
C213        C  0.14950604  0.21086203  0.94910827    -0.10000
C214        C  0.18377218  0.22197841  0.96728619     0.06200
C215        C  0.19117137  0.23816856  0.00801674    -0.03800
C216        C  0.16469172  0.24161874  0.02986006    -0.08200
C217        C  0.13096180  0.23181047  0.01163774     0.05300
C218        C  0.12324402  0.21596629  0.97078405    -0.03200
Br219      Br  0.07892697  0.20393017  0.94170300    -0.02900
H220        H  0.14339003  0.19886825  0.91783728     0.09200
H221        H  0.17163865  0.25471822  0.06058386     0.07300
Br222      Br  0.23849091  0.26144528  0.03437951    -0.03400
C223        C  0.43118163  0.29391533  0.97584550    -0.10000
C224        C  0.39785297  0.27647944  0.99709754     0.06200
C225        C  0.39752019  0.26971083  0.04090859    -0.03800
C226        C  0.42965063  0.27689804  0.06174228    -0.08200
C227        C  0.46239040  0.29088908  0.03947349     0.05300
C228        C  0.46340550  0.30174943  0.99690530    -0.03200
Br229      Br  0.50811286  0.32658784  0.96604715    -0.02900
H230        H  0.43192726  0.29981923  0.94239713     0.09200
H231        H  0.42836473  0.26854270  0.09442444     0.07300
Br232      Br  0.35331242  0.24679118  0.07281693    -0.03400
C233        C  0.20867932  0.07345399  0.85905380    -0.10000
C234        C  0.22451085  0.10684367  0.83679625     0.06200
C235        C  0.22864655  0.10626871  0.79262704    -0.03800
C236        C  0.22093042  0.07338990  0.77227694    -0.08200
C237        C  0.20861534  0.04059158  0.79536972     0.05300
C238        C  0.20002610  0.04043839  0.83856804    -0.03200
Br239      Br  0.17711685  0.99588908  0.87124873    -0.02900
H240        H  0.20470619  0.07328964  0.89286233     0.09200
H241        H  0.22736352  0.07417078  0.73907779     0.07300
Br242      Br  0.24809208  0.15039251  0.75943900    -0.03400
C243        C  0.29525362  0.37326084  0.82677065    -0.10000
C244        C  0.26218136  0.37140624  0.83712329     0.06200
C245        C  0.24280480  0.35010929  0.87264610    -0.03800
C246        C  0.25515349  0.32961930  0.89519316    -0.08200
C247        C  0.28604018  0.32844075  0.88229597     0.05300
C248        C  0.30691355  0.35149570  0.84859617    -0.03200
Br249      Br  0.35074371  0.35300491  0.83047487    -0.02900
H250        H  0.31090071  0.38989273  0.80020684     0.09200
H251        H  0.23853181  0.31177316  0.92055239     0.07300
Br252      Br  0.19815243  0.34600216  0.89141238    -0.03400
C253        C  0.35131918  0.06356179  0.63072132    -0.10000
C254        C  0.37571256  0.09428428  0.65421659     0.06200
C255        C  0.37645828  0.09086268  0.69856494    -0.03800
C256        C  0.34988979  0.05892969  0.71895207    -0.08200
C257        C  0.32279771  0.02969646  0.69557291     0.05300
C258        C  0.32576166  0.03108817  0.65087183    -0.03200
Br259      Br  0.29425255  0.48771895  0.61633315    -0.02900
H260        H  0.35097467  0.06543016  0.59659403     0.09200
H261        H  0.34870208  0.05832535  0.75312642     0.07300
Br262      Br  0.41016526  0.13071553  0.73310947    -0.03400
C263        C  0.06170774  0.35912575  0.69768340    -0.10000
C264        C  0.09482133  0.37883954  0.67640164     0.06200
C265        C  0.09540480  0.37584745  0.63203281    -0.03800
C266        C  0.06413743  0.34999713  0.61043902    -0.08200
C267        C  0.03194090  0.32741495  0.63253169     0.05300
C268        C  0.03021324  0.33427367  0.67588111    -0.03200
Br269      Br  0.48555478  0.30963788  0.70681635    -0.02900
H270        H  0.06069857  0.36172444  0.73160469     0.09200
H271        H  0.06590636  0.34546677  0.57710214     0.07300
Br272      Br  0.13923424  0.40338856  0.60018845    -0.03400
C273        C  0.35839791  0.23545148  0.71460635    -0.10000
C274        C  0.38697131  0.22748892  0.71707463     0.06200
C275        C  0.40120260  0.22697096  0.75748844    -0.03800
C276        C  0.38329528  0.22868423  0.79363573    -0.08200
C277        C  0.35202999  0.23227284  0.79085496     0.05300
C278        C  0.34146845  0.23864399  0.75074940    -0.03200
Br279      Br  0.30485045  0.25248252  0.74245100    -0.02900
H280        H  0.34836730  0.23841864  0.68416633     0.09200
H281        H  0.39324753  0.22567660  0.82416968     0.07300
Br282      Br  0.44410639  0.22325818  0.76698673    -0.03400
C283        C  0.03087021  0.20633173  0.48488448    -0.10000
C284        C  0.03100853  0.20686535  0.52945276     0.06200
C285        C  0.06140919  0.20922195  0.55099622    -0.03800
C286        C  0.09166406  0.21395145  0.52792120    -0.08200
C287        C  0.09268320  0.21747643  0.48371121     0.05300
C288        C  0.06155383  0.21245115  0.46213918    -0.03200
Br289      Br  0.06114800  0.21761982  0.40185113    -0.02900
H290        H  0.00786980  0.20416368  0.46756340     0.09200
H291        H  0.11590249  0.21874304  0.54483911     0.07300
Br292      Br  0.06612011  0.21225884  0.61140876    -0.03400
C293        C  0.37685746  0.28922080  0.48179635    -0.10000
C294        C  0.37065035  0.27787890  0.52429999     0.06200
C295        C  0.34117900  0.27697799  0.54548038    -0.03800
C296        C  0.31679196  0.28402124  0.52328247    -0.08200
C297        C  0.31999208  0.29045813  0.47930406     0.05300
C298        C  0.35165407  0.29509677  0.45897360    -0.03200
Br299      Br  0.36027268  0.30482028  0.39958091    -0.02900
H300        H  0.39949043  0.28997587  0.46512304     0.09200
H301        H  0.29354532  0.28163153  0.54019972     0.07300
Br302      Br  0.33120964  0.26344149  0.60396439    -0.03400
C303        C  0.33813808  0.13033444  0.45571344    -0.10000
C304        C  0.37527772  0.15705898  0.45579459     0.06200
C305        C  0.39478148  0.16436936  0.41745463    -0.03800
C306        C  0.37674377  0.14614838  0.38038455    -0.08200
C307        C  0.33929686  0.12056452  0.38013320     0.05300
C308        C  0.32006214  0.11244268  0.41871030    -0.03200
Br309      Br  0.26839614  0.08025770  0.42333603    -0.02900
H310        H  0.32232450  0.12436692  0.48442794     0.09200
H311        H  0.39209645  0.15261927  0.35125244     0.07300
Br312      Br  0.44591873  0.19855150  0.41274732    -0.03400
Fe313      Fe  0.37866650  0.68514479  0.58670881     1.65800
Fe314      Fe  0.45972220  0.70498906  0.63010530     1.73200
Fe315      Fe  0.45620933  0.74683215  0.53762164     1.54400
O316        O  0.42103541  0.70807505  0.49370442    -0.82500
O317        O  0.49436074  0.76050498  0.63592573    -0.80800
O318        O  0.37639906  0.66123482  0.52946568    -0.85000
O319        O  0.37128624  0.72473374  0.55619871    -0.79900
O320        O  0.49105661  0.72717890  0.52895768    -0.81600
O321        O  0.42770464  0.71054659  0.67624721    -0.84400
C322        C  0.39070997  0.75663541  0.54088373     0.96400
C323        C  0.39293988  0.67598899  0.49509461     1.03800
O324        O  0.43175245  0.71227513  0.58473546    -1.13400
O325        O  0.42854412  0.64802329  0.63329563    -0.75800
O326        O  0.37384631  0.63935783  0.61788983    -0.79300
O327        O  0.42485235  0.77169450  0.53868800    -0.80000
C328        C  0.39426444  0.62814073  0.63324375     0.95300
O329        O  0.37995096  0.70886897  0.64360273    -0.77900
O330        O  0.49470559  0.69953797  0.58761509    -0.83100
C331        C  0.50455017  0.78952407  0.61426665     0.97900
C332        C  0.50401100  0.71028414  0.54957772     1.03800
O333        O  0.49338321  0.78904815  0.57672874    -0.78800
C334        C  0.39960225  0.71432957  0.67633126     1.02100
Fe335      Fe  0.31507788  0.69261513  0.91366479     1.65800
Fe336      Fe  0.29011859  0.74523022  0.96561360     1.73200
Fe337      Fe  0.26146389  0.72002550  0.86602047     1.54400
O338        O  0.29940728  0.71951205  0.82430272    -0.82500
O339        O  0.23519974  0.71385917  0.96678065    -0.80800
O340        O  0.34500234  0.72351952  0.86345638    -0.85000
O341        O  0.27753110  0.65241856  0.87272768    -0.79900
O342        O  0.29122095  0.77616565  0.86359861    -0.81600
O343        O  0.29020672  0.70554837  0.00528723    -0.84400
C344        C  0.24568300  0.64285148  0.85911738     0.96400
C345        C  0.33186612  0.72534536  0.82799021     1.03800
O346        O  0.28940076  0.71971491  0.91486925    -1.13400
O347        O  0.34614092  0.77547371  0.96874333    -0.75800
O348        O  0.35611974  0.72907690  0.95456465    -0.79300
O349        O  0.23127407  0.66303307  0.86364149    -0.80000
C350        C  0.36583458  0.76044602  0.97085397     0.95300
O351        O  0.28586213  0.66072135  0.96397138    -0.77900
O352        O  0.28848541  0.78815528  0.93141498    -0.83100
C353        C  0.21463811  0.71919112  0.94265703     0.97900
C354        C  0.29156679  0.79717033  0.89228228     1.03800
O355        O  0.22050661  0.72296243  0.90278839    -0.78800
C356        C  0.28397616  0.67280317  0.99998765     1.02100
Fe357      Fe  0.18171964  0.87915910  0.75369914     1.65800
Fe358      Fe  0.24516474  0.95922180  0.79652451     1.73200
Fe359      Fe  0.20510743  0.95852839  0.70213982     1.54400
O360        O  0.20748080  0.91999397  0.66155267    -0.82500
O361        O  0.22768707  0.99687959  0.80090188    -0.80800
O362        O  0.20661292  0.87443771  0.70021566    -0.85000
O363        O  0.13944159  0.87411663  0.71603045    -0.79900
O364        O  0.25978163  0.99073905  0.69475208    -0.81600
O365        O  0.20523780  0.92705564  0.84123910    -0.84400
C366        C  0.12922206  0.89526258  0.70008164     0.96400
C367        C  0.21036993  0.89088598  0.66496284     1.03800
O368        O  0.21095331  0.93273242  0.75067457    -1.13400
O369        O  0.26718149  0.92463592  0.79945680    -0.75800
O370        O  0.21668790  0.87126675  0.79308698    -0.79300
O371        O  0.14895686  0.92984964  0.70130630    -0.80000
C372        C  0.24893810  0.89036635  0.80656559     0.95300
O373        O  0.15672263  0.88408146  0.80637533    -0.77900
O374        O  0.28771157  0.99380128  0.75554407    -0.83100
C375        C  0.21254357  0.00994117  0.77729940     0.97900
C376        C  0.28837882  0.00253865  0.71668022     1.03800
O377        O  0.20294392  0.99910134  0.73931512    -0.78800
C378        C  0.17197607  0.90130239  0.84022674     1.02100
Fe379      Fe  0.12126555  0.81506527  0.08235325     1.65800
Fe380      Fe  0.04246488  0.79074907  0.13222609     1.73200
Fe381      Fe  0.04257622  0.75219782  0.03622232     1.54400
O382        O  0.07474820  0.79317426  0.99237836    -0.82500
O383        O  0.00998413  0.73528551  0.13730575    -0.80800
O384        O  0.11859740  0.84043982  0.02806136    -0.85000
O385        O  0.12873625  0.77876616  0.04666802    -0.79900
O386        O  0.00605323  0.77086980  0.03237543    -0.81600
O387        O  0.07886397  0.78701198  0.17444163    -0.84400
C388        C  0.11094151  0.74729909  0.03008676     0.96400
C389        C  0.10132030  0.82618940  0.99397699     1.03800
O390        O  0.06844150  0.78566591  0.08367800    -1.13400
O391        O  0.07111048  0.84744495  0.13546326    -0.75800
O392        O  0.12582660  0.85837559  0.11719649    -0.79300
O393        O  0.07648129  0.72948312  0.03096847    -0.80000
C394        C  0.10511465  0.86829033  0.13390455     0.95300
O395        O  0.12500959  0.79024928  0.13700555    -0.77900
O396        O  0.00395734  0.79489008  0.09437066    -0.83100
C397        C  0.99781955  0.70680007  0.11459878     0.97900
C398        C  0.99362906  0.78625726  0.05618432     1.03800
O399        O  0.00752222  0.70814053  0.07614176    -0.78800
C400        C  0.10796884  0.78504317  0.17172901     1.02100
Fe401      Fe  0.18819731  0.81000700  0.41726988     1.65800
Fe402      Fe  0.20557921  0.74773771  0.46404869     1.73200
Fe403      Fe  0.25089684  0.79360337  0.37441355     1.54400
O404        O  0.21490500  0.79299284  0.32781642    -0.82500
O405        O  0.25959054  0.76843199  0.47532528    -0.80800
O406        O  0.16549272  0.78664039  0.36043072    -0.85000
O407        O  0.22776091  0.85591525  0.38572665    -0.79900
O408        O  0.23051720  0.73950235  0.36312996    -0.81600
O409        O  0.20603271  0.78508810  0.50995070    -0.84400
C410        C  0.26071888  0.86844846  0.37569306     0.96400
C411        C  0.18209792  0.78671849  0.32699009     1.03800
O412        O  0.21498856  0.78345436  0.41865583    -1.13400
O413        O  0.14977804  0.72178896  0.45999371    -0.75800
O414        O  0.14278915  0.77011544  0.44861921    -0.79300
O415        O  0.27631266  0.84965930  0.37965063    -0.78200
C416        C  0.13075272  0.73730761  0.46116040     0.95300
O417        O  0.21082218  0.83344139  0.47383188    -0.77900
O418        O  0.20446980  0.70783759  0.42175948    -0.83100
C419        C  0.28880647  0.78402090  0.45434919     0.97900
C420        C  0.21475601  0.70952516  0.38338377     1.03800
O421        O  0.28983299  0.79440771  0.41620085    -0.78800
C422        C  0.21028872  0.81777393  0.50851503     1.02100
Fe423      Fe  0.31463815  0.62260121  0.24536233     1.65800
Fe424      Fe  0.25274298  0.54301808  0.29362137     1.73200
Fe425      Fe  0.29324553  0.53986175  0.20129142     1.54400
O426        O  0.28797821  0.57213426  0.15541875    -0.82500
O427        O  0.26997135  0.50569667  0.30083288    -0.80800
O428        O  0.29458447  0.62324922  0.18595336    -0.85000
O429        O  0.36082594  0.62629036  0.21825120    -0.79900
O430        O  0.23849378  0.50477359  0.19613695    -0.81600
O431        O  0.29142661  0.57590257  0.33784062    -0.84400
C432        C  0.37045006  0.60515766  0.20113123     0.96400
C433        C  0.28811407  0.60256727  0.15390993     1.03800
O434        O  0.28697470  0.56847689  0.24682276    -1.13400
O435        O  0.23014337  0.57643627  0.29532342    -0.75800
O436        O  0.27435569  0.63027343  0.27244927    -0.79300
O437        O  0.34913851  0.57091103  0.19745021    -0.80000
C438        C  0.24403407  0.61077738  0.29062160     0.95300
O439        O  0.33595370  0.62486532  0.30485274    -0.77900
O440        O  0.21043320  0.50778938  0.25387139    -0.83100
C441        C  0.28680177  0.49334276  0.27979012     0.97900
C442        C  0.20986701  0.49519116  0.21726356     1.03800
O443        O  0.29871590  0.50424418  0.24268218    -0.78800
C444        C  0.32170411  0.60589909  0.33815911     1.02100
C445        C  0.21478362  0.68045741  0.31508407    -0.10000
C446        C  0.21098396  0.67699218  0.35958332     0.06200
C447        C  0.21074779  0.64638963  0.37896933    -0.03800
C448        C  0.21796948  0.62274208  0.35465684    -0.08200
C449        C  0.22638337  0.62943367  0.31136023     0.05300
C450        C  0.22325923  0.65771070  0.29129017    -0.03200
Br451      Br  0.23196721  0.66745805  0.23185255    -0.02900
H452        H  0.21384645  0.70283916  0.29880572     0.09200
H453        H  0.22004379  0.60081800  0.37046353     0.07300
Br454      Br  0.20491922  0.63746496  0.43868033    -0.03400
C455        C  0.28651388  0.90569832  0.31126957    -0.10000
C456        C  0.27972832  0.90452421  0.35481332     0.06200
C457        C  0.28389142  0.93608538  0.37498430    -0.03800
C458        C  0.29120139  0.96705061  0.35101037    -0.08200
C459        C  0.29331591  0.96677439  0.30660002     0.05300
C460        C  0.29312915  0.93651523  0.28690079    -0.03200
Br461      Br  0.29651089  0.93323208  0.22680567    -0.02900
H462        H  0.28326972  0.88131446  0.29554133     0.09200
H463        H  0.29229930  0.99043785  0.36694079     0.07300
Br464      Br  0.27707540  0.93707489  0.43469177    -0.03400
C465        C  0.17367090  0.96662333  0.15479947    -0.10000
C466        C  0.17527739  0.96634521  0.19920625     0.06200
C467        C  0.14769100  0.93616971  0.22148425    -0.03800
C468        C  0.12139190  0.90553244  0.19906791    -0.08200
C469        C  0.12254765  0.90442124  0.15474215     0.05300
C470        C  0.14783610  0.93594161  0.13260041    -0.03200
Br471      Br  0.15015859  0.93687215  0.07200119    -0.02900
H472        H  0.19435314  0.98979249  0.13716652     0.09200
H473        H  0.10239447  0.88114004  0.21642201     0.07300
Br474      Br  0.14799224  0.93274419  0.28196125    -0.03400
C475        C  0.40839661  0.61928714  0.13672274    -0.10000
C476        C  0.40666036  0.62219358  0.18081559     0.06200
C477        C  0.43825045  0.64710434  0.20260083    -0.03800
C478        C  0.46955170  0.67106234  0.18001759    -0.08200
C479        C  0.46981155  0.67207222  0.13536770     0.05300
C480        C  0.43939428  0.64417571  0.11377179    -0.03200
Br481      Br  0.43626930  0.64138340  0.05328465    -0.02900
H482        H  0.38432476  0.59981596  0.11960781     0.09200
H483        H  0.49291595  0.69128315  0.19763259     0.07300
Br484      Br  0.43915409  0.65101297  0.26301883    -0.03400
C485        C  0.16091989  0.78735981  0.20945845    -0.10000
C486        C  0.12439530  0.77907884  0.21074572     0.06200
C487        C  0.10605927  0.76838606  0.24992899    -0.03800
C488        C  0.12515334  0.76961435  0.28666931    -0.08200
C489        C  0.16247691  0.78078243  0.28588376     0.05300
C490        C  0.17991039  0.78810358  0.24612338    -0.03200
Br491      Br  0.22983172  0.80092710  0.23853334    -0.02900
H492        H  0.17554096  0.79480418  0.17983210     0.09200
H493        H  0.11059579  0.76240592  0.31632002     0.07300
Br494      Br  0.05503823  0.75134844  0.25641910    -0.03400
C495        C  0.11611372  0.85622740  0.87825536    -0.10000
C496        C  0.15075701  0.88796564  0.88018821     0.06200
C497        C  0.16575925  0.90187058  0.92050385    -0.03800
C498        C  0.14738719  0.88260964  0.95680118    -0.08200
C499        C  0.11473049  0.84865902  0.95459928     0.05300
C500        C  0.09851195  0.83611481  0.91446379    -0.03200
Br501      Br  0.05412650  0.79057473  0.90493178    -0.02900
H502        H  0.10352891  0.84511180  0.84799016     0.09200
H503        H  0.16033336  0.89334355  0.98700960     0.07300
Br504      Br  0.21268038  0.94454530  0.92978037    -0.03400
C505        C  0.20933436  0.88663832  0.58668011    -0.10000
C506        C  0.21560211  0.87442796  0.62552787     0.06200
C507        C  0.22322357  0.84500270  0.62511299    -0.03800
C508        C  0.22215141  0.82744362  0.58684380    -0.08200
C509        C  0.21359907  0.83841791  0.54831730     0.05300
C510        C  0.20730458  0.86876315  0.54886016    -0.03200
Br511      Br  0.19207558  0.88622625  0.50073572    -0.02900
H512        H  0.20424922  0.90943799  0.58562419     0.09200
H513        H  0.22772331  0.80491732  0.58736293     0.07300
Br514      Br  0.23637606  0.82777357  0.67494755    -0.03400
C515        C  0.29208817  0.62541953  0.03738309    -0.10000
C516        C  0.27788340  0.64936177  0.03747307     0.06200
C517        C  0.26224281  0.65337412  0.07486932    -0.03800
C518        C  0.26462422  0.63671714  0.11220593    -0.08200
C519        C  0.28149887  0.61511528  0.11284407     0.05300
C520        C  0.29389587  0.60818769  0.07442744    -0.03200
Br521      Br  0.31685041  0.57862168  0.07016733    -0.02900
H522        H  0.30388257  0.62170824  0.00881926     0.09200
H523        H  0.25368269  0.64112471  0.14106316     0.07300
Br524      Br  0.23648731  0.68028199  0.07680918    -0.03400
C525        C  0.15109345  0.71121183  0.94690079    -0.10000
C526        C  0.18609180  0.72417760  0.96397613     0.06200
C527        C  0.19410788  0.74190558  0.00378654    -0.03800
C528        C  0.16758689  0.74499719  0.02599317    -0.08200
C529        C  0.13297863  0.73319242  0.00899306     0.05300
C530        C  0.12465750  0.71589266  0.96891146    -0.03200
Br531      Br  0.07902683  0.70090906  0.94142697    -0.02900
H532        H  0.14444322  0.69789780  0.91634606     0.09200
H533        H  0.17504499  0.75915964  0.05608107     0.07300
Br534      Br  0.24211736  0.76716012  0.02837685    -0.03400
C535        C  0.43337845  0.79560422  0.97480860    -0.10000
C536        C  0.39988326  0.77779306  0.99570212     0.06200
C537        C  0.39930164  0.77066689  0.03944758    -0.03800
C538        C  0.43124461  0.77737491  0.06038466    -0.08200
C539        C  0.46411795  0.79156606  0.03836535     0.05300
C540        C  0.46547279  0.80327089  0.99610757    -0.03200
Br541      Br  0.51055473  0.82958467  0.96628654    -0.02900
H542        H  0.43438376  0.80205257  0.94149154     0.09200
H543        H  0.42972534  0.76863899  0.09294127     0.07300
Br544      Br  0.35502508  0.74830647  0.07119848    -0.03400
C545        C  0.20800019  0.57447163  0.85679591    -0.10000
C546        C  0.22662552  0.60803781  0.83507053     0.06200
C547        C  0.23284484  0.60755929  0.79136322    -0.03800
C548        C  0.22435951  0.57442453  0.77125382    -0.08200
C549        C  0.20923041  0.54128015  0.79406530     0.05300
C550        C  0.19863923  0.54120956  0.83641231    -0.03200
Br551      Br  0.17186578  0.49635446  0.86786561    -0.02900
H552        H  0.20230805  0.57424715  0.89016254     0.09200
H553        H  0.23235215  0.57511323  0.73865873     0.07300
Br554      Br  0.25579801  0.65184856  0.75848803    -0.03400
C555        C  0.29746369  0.87403691  0.82273896    -0.10000
C556        C  0.26424714  0.87185607  0.83311677     0.06200
C557        C  0.24476298  0.85016015  0.86834203    -0.03800
C558        C  0.25742277  0.83004242  0.89097307    -0.08200
C559        C  0.28855400  0.82931447  0.87822823     0.05300
C560        C  0.30929428  0.85235928  0.84445531    -0.03200
Br561      Br  0.35313484  0.85399705  0.82613336    -0.02900
H562        H  0.31307411  0.89083404  0.79625121     0.09200
H563        H  0.24081481  0.81203150  0.91623765     0.07300
Br564      Br  0.19935853  0.84462996  0.88639771    -0.03400
C565        C  0.35107216  0.56087509  0.63105620    -0.10000
C566        C  0.37628183  0.59145385  0.65407284     0.06200
C567        C  0.37758317  0.58802898  0.69838597    -0.03800
C568        C  0.35053109  0.55663481  0.71929850    -0.08200
C569        C  0.32266019  0.52763309  0.69639289     0.05300
C570        C  0.32535196  0.52873599  0.65162561    -0.03200
Br571      Br  0.29490468  0.99006592  0.61531512    -0.02900
H572        H  0.35036863  0.56255734  0.59693233     0.09200
H573        H  0.34987512  0.55619647  0.75349303     0.07300
Br574      Br  0.41346621  0.62693499  0.73210240    -0.03400
C575        C  0.06211156  0.85608962  0.69910703    -0.10000
C576        C  0.09434067  0.87799537  0.67692619     0.06200
C577        C  0.09379041  0.87627523  0.63238654    -0.03800
C578        C  0.06289013  0.84924245  0.61128459    -0.08200
C579        C  0.03191076  0.82453248  0.63407151     0.05300
C580        C  0.03071506  0.83038579  0.67782251    -0.03200
Br581      Br  0.48684690  0.80401886  0.70979293    -0.02900
H582        H  0.06178308  0.85785922  0.73321057     0.09200
H583        H  0.06409394  0.84586800  0.57754882     0.07300
Br584      Br  0.13568938  0.90775376  0.59935202    -0.03400
C585        C  0.36038462  0.73374647  0.71341244    -0.10000
C586        C  0.38794761  0.72431507  0.71601872     0.06200
C587        C  0.40157951  0.72284223  0.75649254    -0.03800
C588        C  0.38410512  0.72539867  0.79254634    -0.08200
C589        C  0.35398641  0.73087756  0.78962336     0.05300
C590        C  0.34401831  0.73787282  0.74950355    -0.03200
Br591      Br  0.30906879  0.75395392  0.74122733    -0.02900
H592        H  0.35085169  0.73737400  0.68295208     0.09200
H593        H  0.39349483  0.72168384  0.82311207     0.07300
Br594      Br  0.44324172  0.71702921  0.76629258    -0.03400
C595        C  0.03313655  0.70819872  0.48267437    -0.10000
C596        C  0.03218562  0.70533331  0.52718306     0.06200
C597        C  0.06157029  0.70485404  0.54798275    -0.03800
C598        C  0.09227762  0.71105798  0.52468553    -0.08200
C599        C  0.09458507  0.71850051  0.48108247     0.05300
C600        C  0.06413593  0.71554998  0.45986475    -0.03200
Br601      Br  0.06477437  0.72443939  0.40021048    -0.02900
H602        H  0.01072881  0.70770630  0.46564706     0.09200
H603        H  0.11578004  0.71355043  0.54135984     0.07300
Br604      Br  0.06392579  0.70086302  0.60821997    -0.03400
C605        C  0.37605716  0.78185441  0.47767937    -0.10000
C606        C  0.37205260  0.77478627  0.52134178     0.06200
C607        C  0.34493957  0.77785161  0.54308928    -0.03800
C608        C  0.32070581  0.78514001  0.52076601    -0.08200
C609        C  0.32174169  0.78789075  0.47626290     0.05300
C610        C  0.35096441  0.78787641  0.45485841    -0.03200
Br611      Br  0.35578167  0.79080657  0.39446995    -0.02900
H612        H  0.39672787  0.77919742  0.46059861     0.09200
H613        H  0.29922064  0.78596703  0.53826207     0.07300
Br614      Br  0.33834579  0.76975105  0.60289958    -0.03400
C615        C  0.33997406  0.62851915  0.45518367    -0.10000
C616        C  0.37696238  0.65559766  0.45511822     0.06200
C617        C  0.39619170  0.66384607  0.41650962    -0.03800
C618        C  0.37797598  0.64617141  0.37930669    -0.08200
C619        C  0.34059650  0.62027227  0.37920194     0.05300
C620        C  0.32168984  0.61117396  0.41809875    -0.03200
Br621      Br  0.27022181  0.57814329  0.42355007    -0.02900
H622        H  0.32440786  0.62183056  0.48414208     0.09200
H623        H  0.39313500  0.65333032  0.35002208     0.07300
Br624      Br  0.44717699  0.69858736  0.41160870    -0.03400
Fe625      Fe  0.87744224  0.18771615  0.58759561     1.65800
Fe626      Fe  0.95880666  0.20829541  0.63098455     1.73200
Fe627      Fe  0.95506140  0.24882935  0.53746573     1.54400
O628        O  0.91986088  0.20961646  0.49395462    -0.82500
O629        O  0.99370927  0.26371999  0.63554488    -0.80800
O630        O  0.87440841  0.16391908  0.52997517    -0.85000
O631        O  0.87033172  0.22775268  0.55831781    -0.79900
O632        O  0.99002779  0.22903020  0.52941213    -0.81600
O633        O  0.92744156  0.21479124  0.67714004    -0.84400
C634        C  0.88959178  0.25933107  0.54218588     0.96400
C635        C  0.89128174  0.17792038  0.49557955     1.03800
O636        O  0.93061879  0.21490065  0.58526526    -1.13400
O637        O  0.92757993  0.15150356  0.63527737    -0.75800
O638        O  0.87283884  0.14168764  0.61764799    -0.79300
O639        O  0.92356696  0.27369087  0.53789105    -0.80000
C640        C  0.89341542  0.13102043  0.63378707     0.95300
O641        O  0.87861855  0.21092447  0.64494421    -0.77900
O642        O  0.99328959  0.20198845  0.58885699    -0.83100
C643        C  0.00401294  0.29243757  0.61333675     0.97900
C644        C  0.00280212  0.21232399  0.55079251     1.03800
O645        O  0.99253789  0.29160124  0.57586984    -0.78800
C646        C  0.89878050  0.21754286  0.67741389     1.02100
Fe647      Fe  0.81314449  0.19166617  0.91477715     1.65800
Fe648      Fe  0.78770428  0.24328363  0.96816068     1.73200
Fe649      Fe  0.75901190  0.21905783  0.86829546     1.54400
O650        O  0.79701643  0.21940114  0.82591146    -0.82500
O651        O  0.73287186  0.21158814  0.96929763    -0.80800
O652        O  0.84270483  0.22310628  0.86458191    -0.85000
O653        O  0.77550961  0.15155955  0.87393208    -0.79900
O654        O  0.78838264  0.27524017  0.86678433    -0.81600
O655        O  0.78813707  0.20329426  0.00710929    -0.84400
C656        C  0.74361465  0.14189713  0.86043876     0.96400
C657        C  0.82958994  0.22551742  0.82933730     1.03800
O658        O  0.78712122  0.21841018  0.91685538    -1.13400
O659        O  0.84367787  0.27380365  0.97128085    -0.75800
O660        O  0.85424503  0.22804034  0.95559299    -0.79300
O661        O  0.72913951  0.16203768  0.86493576    -0.80000
C662        C  0.86367993  0.25909680  0.97255106     0.95300
O663        O  0.78442137  0.15918091  0.96504146    -0.77900
O664        O  0.78570326  0.28651436  0.93487194    -0.83100
C665        C  0.71229316  0.21721815  0.94559134     0.97900
C666        C  0.78871908  0.29593853  0.89586089     1.03800
O667        O  0.71802634  0.22131766  0.90570957    -0.78800
C668        C  0.78229115  0.17073032  0.00129689     1.02100
Fe669      Fe  0.68028898  0.37878648  0.75609393     1.65800
Fe670      Fe  0.74398739  0.45877524  0.79833839     1.73200
Fe671      Fe  0.70487554  0.45748524  0.70308577     1.54400
O672        O  0.70573261  0.41748544  0.66344192    -0.82500
O673        O  0.72649696  0.49641653  0.80195845    -0.80800
O674        O  0.70558398  0.37315937  0.70371394    -0.85000
O675        O  0.63880496  0.37395274  0.71686132    -0.79900
O676        O  0.75962802  0.48839578  0.69548679    -0.81600
O677        O  0.70362697  0.42679344  0.84304228    -0.84400
C678        C  0.62902096  0.39543771  0.70083404     0.96400
C679        C  0.70819292  0.38819607  0.66777699     1.03800
O680        O  0.71010719  0.43216097  0.75236352    -1.13400
O681        O  0.76564540  0.42389879  0.80193044    -0.75800
O682        O  0.71454652  0.37089681  0.79704942    -0.79300
O683        O  0.64881686  0.42996234  0.70292906    -0.80000
C684        C  0.74698703  0.38983157  0.81013236     0.95300
O685        O  0.65490947  0.38491564  0.80748640    -0.77900
O686        O  0.78694978  0.49324910  0.75724345    -0.83100
C687        C  0.71259338  0.50999579  0.77721325     0.97900
C688        C  0.78803857  0.50092267  0.71788260     1.03800
O689        O  0.70400483  0.49931776  0.73901859    -0.78800
C690        C  0.67008467  0.40163727  0.84157037     1.02100
Fe691      Fe  0.62019056  0.31490895  0.08368118     1.65800
Fe692      Fe  0.54112307  0.29103693  0.13325176     1.73200
Fe693      Fe  0.54114616  0.25205623  0.03757130     1.54400
O694        O  0.57265434  0.29302046  0.99360873    -0.82500
O695        O  0.50848796  0.23554592  0.13817593    -0.80800
O696        O  0.61810402  0.33951893  0.02844835    -0.85000
O697        O  0.62754990  0.27772477  0.04962333    -0.79900
O698        O  0.50416046  0.27004924  0.03401075    -0.81600
O699        O  0.57705043  0.28708812  0.17580884    -0.84400
C700        C  0.60945627  0.24659608  0.03234054     0.96400
C701        C  0.59989616  0.32563025  0.99480526     1.03800
O702        O  0.56722929  0.28575159  0.08487042    -1.13400
O703        O  0.57008149  0.34774072  0.13660266    -0.75800
O704        O  0.62460050  0.35892006  0.11682264    -0.79300
O705        O  0.57503508  0.22957576  0.03188264    -0.80000
C706        C  0.60400431  0.36882997  0.13386538     0.95300
O707        O  0.62391743  0.29116529  0.13929968    -0.77900
O708        O  0.50285456  0.29541124  0.09528344    -0.83100
C709        C  0.49697212  0.20686641  0.11589616     0.97900
C710        C  0.49205015  0.28595135  0.05740733     1.03800
O711        O  0.50688476  0.20801814  0.07762315    -0.78800
C712        C  0.60640234  0.28559563  0.17370877     1.02100
Fe713      Fe  0.68467740  0.30896326  0.41939053     1.65800
Fe714      Fe  0.70339521  0.24711208  0.46413225     1.73200
Fe715      Fe  0.74973301  0.29616693  0.37697634     1.54400
O716        O  0.71315812  0.29477201  0.33026675    -0.82500
O717        O  0.75729441  0.26775539  0.47561754    -0.80800
O718        O  0.66231932  0.28460571  0.36301828    -0.85000
O719        O  0.72235348  0.35459534  0.38593973    -0.79900
O720        O  0.73189194  0.24251045  0.36380424    -0.81600
O721        O  0.70416893  0.28412973  0.51054675    -0.84400
C722        C  0.75564052  0.36842003  0.37708422     0.96400
C723        C  0.67963025  0.28639765  0.32947043     1.03800
O724        O  0.71265681  0.28359781  0.42023637    -1.13400
O725        O  0.64741318  0.22076785  0.46013373    -0.75800
O726        O  0.64028491  0.26921288  0.45162492    -0.79300
O727        O  0.77283696  0.35185040  0.38538814    -0.78200
C728        C  0.62842781  0.23624474  0.46303128     0.95300
O729        O  0.70722711  0.33262743  0.47606485    -0.77900
O730        O  0.70300361  0.20861552  0.42028912    -0.83100
C731        C  0.78715918  0.28578030  0.45631849     0.97900
C732        C  0.71538858  0.21179405  0.38265865     1.03800
O733        O  0.78892645  0.29801000  0.41897623    -0.78800
C734        C  0.70861011  0.31695068  0.51009007     1.02100
Fe735      Fe  0.81445910  0.12206699  0.24533408     1.65800
Fe736      Fe  0.75195132  0.04316324  0.29418014     1.73200
Fe737      Fe  0.79297013  0.03836089  0.20337985     1.54400
O738        O  0.78439969  0.06778445  0.15638205    -0.82500
O739        O  0.76760649  0.00451422  0.30079766    -0.80800
O740        O  0.79598435  0.12161528  0.18477039    -0.85000
O741        O  0.86131267  0.12532639  0.22133002    -0.79900
O742        O  0.73855999  0.00090740  0.20082317    -0.81600
O743        O  0.79105515  0.07497227  0.33865070    -0.84400
C744        C  0.87028121  0.10462053  0.20201468     0.96400
C745        C  0.78669339  0.09926539  0.15388973     1.03800
O746        O  0.78659750  0.06801972  0.24763494    -1.13400
O747        O  0.73106315  0.07810887  0.29692746    -0.75800
O748        O  0.77372806  0.13059250  0.26924679    -0.79300
O749        O  0.84829224  0.07090009  0.19581632    -0.80000
C750        C  0.74434108  0.11206833  0.28951165     0.95300
O751        O  0.83415822  0.12533564  0.30601059    -0.77900
O752        O  0.70941851  0.00939986  0.25393785    -0.83100
C753        C  0.78790636  0.99441376  0.28310568     0.97900
C754        C  0.70951813  0.99394774  0.21955709     1.03800
O755        O  0.80225382  0.00654408  0.24714321    -0.78800
C756        C  0.82055794  0.10578787  0.33911654     1.02100
C757        C  0.71761586  0.18399859  0.31402467    -0.10000
C758        C  0.71290751  0.17998919  0.35839240     0.06200
C759        C  0.71233302  0.14917341  0.37765776    -0.03800
C760        C  0.71890175  0.12513368  0.35327684    -0.08200
C761        C  0.72747733  0.13172221  0.31000990     0.05300
C762        C  0.72557494  0.16083087  0.29013774    -0.03200
Br763      Br  0.73490583  0.17094042  0.23082604    -0.02900
H764        H  0.71740197  0.20683514  0.29794368     0.09200
H765        H  0.72042283  0.10291579  0.36911245     0.07300
Br766      Br  0.70766866  0.14076077  0.43751339    -0.03400
C767        C  0.76068043  0.39684697  0.30804916    -0.10000
C768        C  0.77225036  0.40129054  0.35025377     0.06200
C769        C  0.79499055  0.43673461  0.36620708    -0.03800
C770        C  0.80329103  0.46738739  0.34072239    -0.08200
C771        C  0.78938549  0.46290802  0.29936926     0.05300
C772        C  0.76901247  0.42728115  0.28254304    -0.03200
Br773      Br  0.74658265  0.41837633  0.22772089    -0.02900
H774        H  0.74295882  0.36948329  0.29572324     0.09200
H775        H  0.81837436  0.49470564  0.35418413     0.07300
Br776      Br  0.81208576  0.44439432  0.42343062    -0.03400
C777        C  0.67303062  0.46728513  0.15299944    -0.10000
C778        C  0.67529465  0.46740346  0.19741189     0.06200
C779        C  0.64768493  0.43754880  0.22020427    -0.03800
C780        C  0.62094290  0.40686665  0.19829705    -0.08200
C781        C  0.62161649  0.40525603  0.15401234     0.05300
C782        C  0.64676652  0.43647884  0.13134174    -0.03200
Br783      Br  0.64824676  0.43682564  0.07071235    -0.02900
H784        H  0.69348341  0.49021686  0.13486562     0.09200
H785        H  0.60197777  0.38272249  0.21604108     0.07300
Br786      Br  0.64813816  0.43428917  0.28070776    -0.03400
C787        C  0.90891262  0.11815091  0.13823494    -0.10000
C788        C  0.90664420  0.12179087  0.18214610     0.06200
C789        C  0.93780942  0.14748116  0.20399644    -0.03800
C790        C  0.96900299  0.17167737  0.18152495    -0.08200
C791        C  0.96955344  0.17205250  0.13690836     0.05300
C792        C  0.93989239  0.14317193  0.11537129    -0.03200
Br793      Br  0.93784026  0.13887941  0.05495556    -0.02900
H794        H  0.88521950  0.09799373  0.12105649     0.09200
H795        H  0.99195588  0.19255925  0.19911865     0.07300
Br796      Br  0.93824572  0.15229005  0.26428676    -0.03400
C797        C  0.65802910  0.28513332  0.21172434    -0.10000
C798        C  0.62235552  0.27946727  0.21307695     0.06200
C799        C  0.60442975  0.27091949  0.25257150    -0.03800
C800        C  0.62330496  0.27180772  0.28931598    -0.08200
C801        C  0.65996534  0.28046709  0.28838198     0.05300
C802        C  0.67671348  0.28536214  0.24848376    -0.03200
Br803      Br  0.72494097  0.29296815  0.24076873    -0.02900
H804        H  0.67218876  0.29059817  0.18189281     0.09200
H805        H  0.60909467  0.26642702  0.31910203     0.07300
Br806      Br  0.55431948  0.25759016  0.25986589    -0.03400
C807        C  0.61465571  0.35516477  0.87900913    -0.10000
C808        C  0.64840468  0.38801941  0.88117485     0.06200
C809        C  0.66235614  0.40276926  0.92151546    -0.03800
C810        C  0.64421053  0.38313640  0.95775390    -0.08200
C811        C  0.61276848  0.34814529  0.95541150     0.05300
C812        C  0.59727614  0.33481837  0.91515041    -0.03200
Br813      Br  0.55455803  0.28785064  0.90533191    -0.02900
H814        H  0.60281128  0.34335472  0.84868152     0.09200
H815        H  0.65638972  0.39457810  0.98807205     0.07300
Br816      Br  0.70743222  0.44761505  0.93078490    -0.03400
C817        C  0.72085719  0.39023517  0.59068109    -0.10000
C818        C  0.71274467  0.37057441  0.62894728     0.06200
C819        C  0.70667668  0.33401231  0.62795732    -0.03800
C820        C  0.70719842  0.31789234  0.58932488    -0.08200
C821        C  0.71355309  0.33708617  0.55079592     0.05300
C822        C  0.72155378  0.37430800  0.55222903    -0.03200
Br823      Br  0.73341291  0.40614478  0.50368047    -0.02900
H824        H  0.72588596  0.41813895  0.59026213     0.09200
H825        H  0.70118847  0.28963980  0.58942809     0.07300
Br826      Br  0.69509516  0.30286515  0.67702164    -0.03400
C827        C  0.79023679  0.12269665  0.03775555    -0.10000
C828        C  0.77616286  0.14679890  0.03842320     0.06200
C829        C  0.76052527  0.15039335  0.07608744    -0.03800
C830        C  0.76255680  0.13301277  0.11295009    -0.08200
C831        C  0.77935198  0.11136783  0.11301765     0.05300
C832        C  0.79197794  0.10502267  0.07452364    -0.03200
Br833      Br  0.81574787  0.07623768  0.07045775    -0.02900
H834        H  0.80215930  0.11937267  0.00907984     0.09200
H835        H  0.75173667  0.13719191  0.14205007     0.07300
Br836      Br  0.73567620  0.17810703  0.07945148    -0.03400
C837        C  0.64949745  0.21085156  0.94910078    -0.10000
C838        C  0.68376243  0.22196933  0.96728315     0.06200
C839        C  0.69115539  0.23815313  0.00801696    -0.03800
C840        C  0.66467081  0.24159347  0.02986015    -0.08200
C841        C  0.63094418  0.23178839  0.01163213     0.05300
C842        C  0.62323154  0.21595048  0.97077524    -0.03200
Br843      Br  0.57891650  0.20391484  0.94168947    -0.02900
H844        H  0.64338600  0.19886231  0.91782826     0.09200
H845        H  0.67161294  0.25468733  0.06058716     0.07300
Br846      Br  0.73847302  0.26144024  0.03438423    -0.03400
C847        C  0.93118018  0.29392653  0.97585943    -0.10000
C848        C  0.89785178  0.27648240  0.99711228     0.06200
C849        C  0.89752187  0.26971010  0.04092181    -0.03800
C850        C  0.92965419  0.27689795  0.06175187    -0.08200
C851        C  0.96239422  0.29089667  0.03948150     0.05300
C852        C  0.96340656  0.30176416  0.99691673    -0.03200
Br853      Br  0.00811453  0.32662308  0.96606256    -0.02900
H854        H  0.93192421  0.29983577  0.94241311     0.09200
H855        H  0.92837020  0.26853914  0.09443168     0.07300
Br856      Br  0.85331552  0.24678864  0.07283271    -0.03400
C857        C  0.70871132  0.07344773  0.85906078    -0.10000
C858        C  0.72452385  0.10683810  0.83680560     0.06200
C859        C  0.72865841  0.10626865  0.79263532    -0.03800
C860        C  0.72095262  0.07339459  0.77227977    -0.08200
C861        C  0.70865176  0.04059587  0.79536853     0.05300
C862        C  0.70007133  0.04043742  0.83857129    -0.03200
Br863      Br  0.67719595  0.99588916  0.87125722    -0.02900
H864        H  0.70474415  0.07327982  0.89287044     0.09200
H865        H  0.72738158  0.07418012  0.73907864     0.07300
Br866      Br  0.74809185  0.15039590  0.75945373    -0.03400
C867        C  0.79525203  0.37324835  0.82675611    -0.10000
C868        C  0.76218620  0.37140272  0.83712129     0.06200
C869        C  0.74281944  0.35011795  0.87265490    -0.03800
C870        C  0.75517037  0.32963027  0.89520161    -0.08200
C871        C  0.78604822  0.32844051  0.88229229     0.05300
C872        C  0.80691346  0.35148443  0.84858106    -0.03200
Br873      Br  0.85073323  0.35297959  0.83044328    -0.02900
H874        H  0.81089183  0.38987150  0.80018332     0.09200
H875        H  0.73855507  0.31179273  0.92056985     0.07300
Br876      Br  0.69817572  0.34602179  0.89143559    -0.03400
C877        C  0.85133193  0.06356309  0.63070648    -0.10000
C878        C  0.87572624  0.09427889  0.65421070     0.06200
C879        C  0.87647495  0.09084448  0.69855677    -0.03800
C880        C  0.84990878  0.05890500  0.71893491    -0.08200
C881        C  0.82281413  0.02967988  0.69554896     0.05300
C882        C  0.82577458  0.03108418  0.65084760    -0.03200
Br883      Br  0.79428832  0.48769455  0.61636460    -0.02900
H884        H  0.85098511  0.06544169  0.59658014     0.09200
H885        H  0.84872273  0.05829089  0.75310938     0.07300
Br886      Br  0.91017805  0.13068929  0.73311341    -0.03400
C887        C  0.56171186  0.35912240  0.69768775    -0.10000
C888        C  0.59482620  0.37883910  0.67640876     0.06200
C889        C  0.59541391  0.37584723  0.63204039    -0.03800
C890        C  0.56415084  0.34999129  0.61044535    -0.08200
C891        C  0.53195427  0.32740609  0.63253624     0.05300
C892        C  0.53022089  0.33426713  0.67588337    -0.03200
Br893      Br  0.98555138  0.30964002  0.70682235    -0.02900
H894        H  0.56069949  0.36172203  0.73160883     0.09200
H895        H  0.56592277  0.34546141  0.57710833     0.07300
Br896      Br  0.63924336  0.40339996  0.60019912    -0.03400
C897        C  0.85839933  0.23545551  0.71461875    -0.10000
C898        C  0.88696697  0.22748377  0.71708207     0.06200
C899        C  0.90119361  0.22695378  0.75749504    -0.03800
C900        C  0.88328725  0.22866377  0.79364494    -0.08200
C901        C  0.85202916  0.23226449  0.79086892     0.05300
C902        C  0.84147337  0.23864890  0.75076592    -0.03200
Br903      Br  0.80487274  0.25251349  0.74248014    -0.02900
H904        H  0.84837342  0.23843274  0.68417985     0.09200
H905        H  0.89323513  0.22564559  0.82417687     0.07300
Br906      Br  0.94409104  0.22322927  0.76698855    -0.03400
C907        C  0.53081260  0.20622207  0.48487736    -0.10000
C908        C  0.53098498  0.20685005  0.52944352     0.06200
C909        C  0.56142301  0.20930559  0.55099728    -0.03800
C910        C  0.59167559  0.21403065  0.52792831    -0.08200
C911        C  0.59265787  0.21745633  0.48371057     0.05300
C912        C  0.56149559  0.21233306  0.46213145    -0.03200
Br913      Br  0.56104090  0.21734239  0.40182480    -0.02900
H914        H  0.50777901  0.20398089  0.46755145     0.09200
H915        H  0.61594059  0.21890033  0.54484759     0.07300
Br916      Br  0.56619081  0.21250872  0.61140050    -0.03400
C917        C  0.87682647  0.28918923  0.48176708    -0.10000
C918        C  0.87062495  0.27784479  0.52427055     0.06200
C919        C  0.84115714  0.27694527  0.54545848    -0.03800
C920        C  0.81676415  0.28398439  0.52326720    -0.08200
C921        C  0.81995955  0.29042593  0.47928976     0.05300
C922        C  0.85162195  0.29507071  0.45895327    -0.03200
Br923      Br  0.86024678  0.30482473  0.39956562    -0.02900
H924        H  0.89945938  0.28994896  0.46508851     0.09200
H925        H  0.79352014  0.28159400  0.54019054     0.07300
Br926      Br  0.83120704  0.26342785  0.60394930    -0.03400
C927        C  0.83811952  0.13034944  0.45572604    -0.10000
C928        C  0.87527848  0.15701260  0.45581573     0.06200
C929        C  0.89478982  0.16425861  0.41749120    -0.03800
C930        C  0.87673714  0.14606332  0.38041522    -0.08200
C931        C  0.83926995  0.12055608  0.38015021     0.05300
C932        C  0.82003197  0.11247164  0.41872265    -0.03200
Br933      Br  0.76835524  0.08035274  0.42334694    -0.02900
H934        H  0.82230324  0.12442277  0.48443279     0.09200
H935        H  0.89209596  0.15249020  0.35129178     0.07300
Br936      Br  0.94596001  0.19830251  0.41282657    -0.03400
Fe937      Fe  0.87866276  0.68513149  0.58672672     1.65800
Fe938      Fe  0.95971403  0.70497294  0.63013166     1.73200
Fe939      Fe  0.95620781  0.74681212  0.53764323     1.54400
O940        O  0.92103249  0.70805349  0.49372808    -0.82500
O941        O  0.99434949  0.76048821  0.63595513    -0.80800
O942        O  0.87639883  0.66121203  0.52949062    -0.85000
O943        O  0.87128516  0.72471617  0.55619894    -0.79900
O944        O  0.99104934  0.72715187  0.52898489    -0.81600
O945        O  0.92769050  0.71052798  0.67626675    -0.84400
C946        C  0.89071161  0.75661825  0.54088574     0.96400
C947        C  0.89293928  0.67596572  0.49511899     1.03800
O948        O  0.93174823  0.71225895  0.58475749    -1.13400
O949        O  0.92853795  0.64800874  0.63331545    -0.75800
O950        O  0.87384007  0.63934943  0.61792340    -0.79300
O951        O  0.92485477  0.77167896  0.53870381    -0.80000
C952        C  0.89425830  0.62813039  0.63327237     0.95300
O953        O  0.87994769  0.70886673  0.64361343    -0.77900
O954        O  0.99470219  0.69952228  0.58764977    -0.83100
C955        C  0.00454373  0.78950587  0.61429201     0.97900
C956        C  0.00400388  0.71025978  0.54960967     1.03800
O957        O  0.99338296  0.78902806  0.57675025    -0.78800
C958        C  0.89959365  0.71432042  0.67634558     1.02100
Fe959      Fe  0.81507342  0.69260879  0.91368116     1.65800
Fe960      Fe  0.79011957  0.74523153  0.96562236     1.73200
Fe961      Fe  0.76145817  0.72001417  0.86603273     1.54400
O962        O  0.79940016  0.71949895  0.82431661    -0.82500
O963        O  0.73520068  0.71386269  0.96679486    -0.80800
O964        O  0.84499657  0.72350930  0.86347002    -0.85000
O965        O  0.77752714  0.65240915  0.87274744    -0.79900
O966        O  0.79121574  0.77615396  0.86360383    -0.81600
O967        O  0.79020975  0.70555427  0.00530189    -0.84400
C968        C  0.74567898  0.64284027  0.85913657     0.96400
C969        C  0.83185964  0.72533484  0.82800413     1.03800
O970        O  0.78939710  0.71970910  0.91488185    -1.13400
O971        O  0.84614261  0.77547384  0.96874721    -0.75800
O972        O  0.85611641  0.72907256  0.95457663    -0.79300
O973        O  0.73126883  0.66302095  0.86365945    -0.80000
C974        C  0.86583437  0.76044401  0.97086062     0.95300
O975        O  0.78585780  0.66072107  0.96399119    -0.77900
O976        O  0.78848290  0.78815146  0.93141802    -0.83100
C977        C  0.71463550  0.71918710  0.94266839     0.97900
C978        C  0.79155993  0.79716043  0.89228384     1.03800
O979        O  0.72050180  0.72295278  0.90279925    -0.78800
C980        C  0.78397602  0.67280760  0.00000628     1.02100
Fe981      Fe  0.68171201  0.87915673  0.75367667     1.65800
Fe982      Fe  0.74518028  0.95920834  0.79649557     1.73200
Fe983      Fe  0.70512120  0.95853285  0.70212004     1.54400
O984        O  0.70748909  0.91999576  0.66153405    -0.82500
O985        O  0.72772293  0.99688190  0.80087833    -0.80800
O986        O  0.70660113  0.87442874  0.70019660    -0.85000
O987        O  0.63943971  0.87412647  0.71600836    -0.79900
O988        O  0.75979613  0.99073604  0.69473121    -0.81600
O989        O  0.70525205  0.92704993  0.84121144    -0.84400
C990        C  0.62922821  0.89527764  0.70005684     0.96400
C991        C  0.71037060  0.89088342  0.66494629     1.03800
O992        O  0.71095955  0.93272887  0.75065109    -1.13400
O993        O  0.76717788  0.92460591  0.79941870    -0.75800
O994        O  0.71667005  0.87124944  0.79306148    -0.79300
O995        O  0.64896990  0.92986399  0.70128084    -0.80000
C996        C  0.74892265  0.89033841  0.80653502     0.95300
O997        O  0.65672334  0.88408857  0.80635438    -0.77900
O998        O  0.78772854  0.99377722  0.75551408    -0.83100
C999        C  0.71257683  0.00994714  0.77728540     0.97900
C1000       C  0.78839458  0.00252312  0.71665413     1.03800
O1001       O  0.70296644  0.99910762  0.73930273    -0.78800
C1002       C  0.67198701  0.90130417  0.84020487     1.02100
Fe1003     Fe  0.62126918  0.81506647  0.08233437     1.65800
Fe1004     Fe  0.54247294  0.79076219  0.13221067     1.73200
Fe1005     Fe  0.54257208  0.75220842  0.03620331     1.54400
O1006       O  0.57474646  0.79317927  0.99235360    -0.82500
O1007       O  0.50999306  0.73529797  0.13729921    -0.80800
O1008       O  0.61860536  0.84043507  0.02803780    -0.85000
O1009       O  0.62872858  0.77875404  0.04666328    -0.79900
O1010       O  0.50605740  0.77089146  0.03235923    -0.81600
O1011       O  0.57887550  0.78703248  0.17442678    -0.84400
C1012       C  0.61092902  0.74728978  0.03007651     0.96400
C1013       C  0.60132609  0.82619024  0.99395374     1.03800
O1014       O  0.56844421  0.78567355  0.08366014    -1.13400
O1015       O  0.57111966  0.84745853  0.13543089    -0.75800
O1016       O  0.62583457  0.85838682  0.11715965    -0.79300
O1017       O  0.57646822  0.72948334  0.03094575    -0.80000
C1018       C  0.60512325  0.86830566  0.13386102     0.95300
O1019       O  0.62501729  0.79026113  0.13699436    -0.77900
O1020       O  0.50395946  0.79489791  0.09436307    -0.83100
C1021       C  0.49781915  0.70681379  0.11458794     0.97900
C1022       C  0.49363183  0.78627264  0.05617582     1.03800
O1023       O  0.50751420  0.70815569  0.07612703    -0.78800
C1024       C  0.60797970  0.78506268  0.17171834     1.02100
Fe1025     Fe  0.68822894  0.81003125  0.41726326     1.65800
Fe1026     Fe  0.70559572  0.74774817  0.46403512     1.73200
Fe1027     Fe  0.75091844  0.79361369  0.37439635     1.54400
O1028       O  0.71492723  0.79300538  0.32779799    -0.82500
O1029       O  0.75960681  0.76843170  0.47530768    -0.80800
O1030       O  0.66552872  0.78668285  0.36041708    -0.85000
O1031       O  0.72780270  0.85594714  0.38574595    -0.79900
O1032       O  0.73053397  0.73950730  0.36311553    -0.81600
O1033       O  0.70605558  0.78509460  0.50994338    -0.84400
C1034       C  0.76075787  0.86847682  0.37570307     0.96400
C1035       C  0.68212511  0.78674635  0.32697537     1.03800
O1036       O  0.71501178  0.78346958  0.41864246    -1.13400
O1037       O  0.64979372  0.72180819  0.45998458    -0.75800
O1038       O  0.64281134  0.77013686  0.44859438    -0.79300
O1039       O  0.77634242  0.84967502  0.37962400    -0.78200
C1040       C  0.63077006  0.73732934  0.46113902     0.95300
O1041       O  0.71084847  0.83345031  0.47382945    -0.77900
O1042       O  0.70447682  0.70784770  0.42174554    -0.83100
C1043       C  0.78882369  0.78402121  0.45433291     0.97900
C1044       C  0.71476593  0.70953132  0.38337266     1.03800
O1045       O  0.78985328  0.79441513  0.41618653    -0.78800
C1046       C  0.71031203  0.81777994  0.50851012     1.02100
Fe1047     Fe  0.81463809  0.62259963  0.24538358     1.65800
Fe1048     Fe  0.75274327  0.54301033  0.29363335     1.73200
Fe1049     Fe  0.79325065  0.53986574  0.20130304     1.54400
O1050       O  0.78798864  0.57214528  0.15543557    -0.82500
O1051       O  0.76997847  0.50569371  0.30084572    -0.80800
O1052       O  0.79458429  0.62325307  0.18597691    -0.85000
O1053       O  0.86082715  0.62629333  0.21826794    -0.79900
O1054       O  0.73850052  0.50477911  0.19613875    -0.81600
O1055       O  0.79142283  0.57589575  0.33785634    -0.84400
C1056       C  0.87045240  0.60516045  0.20115026     0.96400
C1057       C  0.78811945  0.60257579  0.15393043     1.03800
O1058       O  0.78697621  0.56847482  0.24683779    -1.13400
O1059       O  0.73013740  0.57642394  0.29533183    -0.75800
O1060       O  0.77435262  0.63026614  0.27247234    -0.79300
O1061       O  0.84914278  0.57091343  0.19747306    -0.80000
C1062       C  0.74402759  0.61076577  0.29063587     0.95300
O1063       O  0.83595370  0.62485799  0.30487312    -0.77900
O1064       O  0.71043695  0.50777690  0.25387974    -0.83100
C1065       C  0.78680372  0.49333818  0.27979576     0.97900
C1066       C  0.70987304  0.49518631  0.21726758     1.03800
O1067       O  0.79871447  0.50424039  0.24268699    -0.78800
C1068       C  0.82170250  0.60588976  0.33817798     1.02100
C1069       C  0.71475763  0.68043305  0.31508170    -0.10000
C1070       C  0.71098618  0.67699079  0.35958407     0.06200
C1071       C  0.71077155  0.64640349  0.37898345    -0.03800
C1072       C  0.71798906  0.62275002  0.35467780    -0.08200
C1073       C  0.72637354  0.62941858  0.31137347     0.05300
C1074       C  0.72322300  0.65767592  0.29129182    -0.03200
Br1075     Br  0.73187758  0.66737774  0.23184127    -0.02900
H1076       H  0.71380434  0.70280331  0.29879689     0.09200
H1077       H  0.72008468  0.60084135  0.37049325     0.07300
Br1078     Br  0.70498506  0.63751242  0.43870243    -0.03400
C1079       C  0.78656194  0.90575940  0.31130476    -0.10000
C1080       C  0.77977077  0.90456534  0.35484806     0.06200
C1081       C  0.78391504  0.93611403  0.37503427    -0.03800
C1082       C  0.79119087  0.96707651  0.35107151    -0.08200
C1083       C  0.79331019  0.96681539  0.30666020     0.05300
C1084       C  0.79315895  0.93657741  0.28695032    -0.03200
Br1085     Br  0.79657183  0.93332081  0.22685600    -0.02900
H1086       H  0.78333656  0.88138757  0.29556432     0.09200
H1087       H  0.79226997  0.99045048  0.36701253     0.07300
Br1088     Br  0.77713749  0.93709202  0.43475231    -0.03400
C1089       C  0.67369792  0.96663237  0.15475213    -0.10000
C1090       C  0.67528251  0.96635905  0.19916148     0.06200
C1091       C  0.64767400  0.93619522  0.22143121    -0.03800
C1092       C  0.62137835  0.90556088  0.19900945    -0.08200
C1093       C  0.62255655  0.90444125  0.15468673     0.05300
C1094       C  0.64786306  0.93595393  0.13254795    -0.03200
Br1095     Br  0.65020172  0.93687945  0.07194918    -0.02900
H1096       H  0.69439273  0.98979534  0.13712366     0.09200
H1097       H  0.60236401  0.88117534  0.21636120     0.07300
Br1098     Br  0.64793343  0.93277774  0.28191081    -0.03400
C1099       C  0.90839382  0.61928426  0.13673877    -0.10000
C1100       C  0.90666091  0.62219436  0.18083170     0.06200
C1101       C  0.93825385  0.64710119  0.20261476    -0.03800
C1102       C  0.96955630  0.67105124  0.18002897    -0.08200
C1103       C  0.96981378  0.67205915  0.13537928     0.05300
C1104       C  0.93939277  0.64416651  0.11378556    -0.03200
Br1105     Br  0.93626574  0.64137382  0.05329858    -0.02900
H1106       H  0.88431978  0.59981612  0.11962602     0.09200
H1107       H  0.99292344  0.69126997  0.19764125     0.07300
Br1108     Br  0.93916024  0.65101684  0.26303208    -0.03400
C1109       C  0.66091956  0.78734391  0.20944229    -0.10000
C1110       C  0.62440683  0.77910301  0.21073897     0.06200
C1111       C  0.60608436  0.76845179  0.24993322    -0.03800
C1112       C  0.62518248  0.76968104  0.28666991    -0.08200
C1113       C  0.66249662  0.78080904  0.28587305     0.05300
C1114       C  0.67991338  0.78808771  0.24610534    -0.03200
Br1115     Br  0.72981513  0.80084526  0.23850224    -0.02900
H1116       H  0.67552922  0.79475398  0.17980849     0.09200
H1117       H  0.61063522  0.76250525  0.31632729     0.07300
Br1118     Br  0.55507677  0.75147366  0.25644802    -0.03400
C1119       C  0.61611446  0.85625672  0.87824032    -0.10000
C1120       C  0.65077595  0.88797078  0.88017127     0.06200
C1121       C  0.66579934  0.90185162  0.92048594    -0.03800
C1122       C  0.64742554  0.88259163  0.95678199    -0.08200
C1123       C  0.61474516  0.84866320  0.95457970     0.05300
C1124       C  0.59850943  0.83614310  0.91444755    -0.03200
Br1125     Br  0.55409036  0.79063566  0.90491945    -0.02900
H1126       H  0.60351472  0.84516054  0.84797631     0.09200
H1127       H  0.66038730  0.89330655  0.98698796     0.07300
Br1128     Br  0.71274960  0.94448669  0.92976164    -0.03400
C1129       C  0.70934203  0.88663649  0.58666762    -0.10000
C1130       C  0.71560896  0.87442761  0.62551586     0.06200
C1131       C  0.72323625  0.84500632  0.62510580    -0.03800
C1132       C  0.72216916  0.82744802  0.58683849    -0.08200
C1133       C  0.71361780  0.83842112  0.54831090     0.05300
C1134       C  0.70731887  0.86876353  0.54884971    -0.03200
Br1135     Br  0.69209269  0.88622659  0.50072229    -0.02900
H1136       H  0.70425180  0.90943321  0.58560956     0.09200
H1137       H  0.72774476  0.80492378  0.58735958     0.07300
Br1138     Br  0.73639187  0.82778418  0.67494410    -0.03400
C1139       C  0.79208526  0.62542357  0.03740288    -0.10000
C1140       C  0.77788545  0.64936991  0.03749437     0.06200
C1141       C  0.76225182  0.65338859  0.07489297    -0.03800
C1142       C  0.76463494  0.63673262  0.11222961    -0.08200
C1143       C  0.78150447  0.61512581  0.11286564     0.05300
C1144       C  0.79389468  0.60819294  0.07444709    -0.03200
Br1145     Br  0.81684135  0.57861987  0.07018162    -0.02900
H1146       H  0.80387410  0.62170748  0.00883763     0.09200
H1147       H  0.75369808  0.64114426  0.14108825     0.07300
Br1148     Br  0.73650227  0.68030230  0.07683598    -0.03400
C1149       C  0.65109097  0.71121012  0.94689643    -0.10000
C1150       C  0.68608411  0.72416754  0.96398385     0.06200
C1151       C  0.69409105  0.74188552  0.00379998    -0.03800
C1152       C  0.66756440  0.74496920  0.02600343    -0.08200
C1153       C  0.63296269  0.73317596  0.00899013     0.05300
C1154       C  0.62465183  0.71589021  0.96890062    -0.03200
Br1155     Br  0.57903422  0.70093046  0.94139526    -0.02900
H1156       H  0.64444860  0.69790657  0.91633572     0.09200
H1157       H  0.67501547  0.75912295  0.05609688     0.07300
Br1158     Br  0.74209732  0.76714673  0.02839829    -0.03400
C1159       C  0.93337770  0.79557895  0.97480230    -0.10000
C1160       C  0.89988569  0.77779148  0.99570372     0.06200
C1161       C  0.89930727  0.77068020  0.03945277    -0.03800
C1162       C  0.93124930  0.77738327  0.06038908    -0.08200
C1163       C  0.96411831  0.79155197  0.03836448     0.05300
C1164       C  0.96547093  0.80323836  0.99609833    -0.03200
Br1165     Br  0.01054673  0.82951291  0.96625712    -0.02900
H1166       H  0.93438027  0.80201235  0.94148115     0.09200
H1167       H  0.92973123  0.76865992  0.09295070     0.07300
Br1168     Br  0.85503392  0.74834191  0.07120987    -0.03400
C1169       C  0.70799228  0.57446019  0.85681293    -0.10000
C1170       C  0.72662407  0.60802657  0.83508900     0.06200
C1171       C  0.73285299  0.60754787  0.79138432    -0.03800
C1172       C  0.72436477  0.57441232  0.77127566    -0.08200
C1173       C  0.70922764  0.54126705  0.79408546     0.05300
C1174       C  0.69863250  0.54119743  0.83643102    -0.03200
Br1175     Br  0.67185725  0.49634389  0.86788683    -0.02900
H1176       H  0.70229520  0.57423601  0.89017797     0.09200
H1177       H  0.73236303  0.57510096  0.73868297     0.07300
Br1178     Br  0.75582669  0.65183732  0.75851182    -0.03400
C1179       C  0.79745691  0.87403014  0.82274713    -0.10000
C1180       C  0.76422044  0.87181957  0.83308937     0.06200
C1181       C  0.74471221  0.85009474  0.86828723    -0.03800
C1182       C  0.75737605  0.82998765  0.89093221    -0.08200
C1183       C  0.78853298  0.82929399  0.87822372     0.05300
C1184       C  0.80928907  0.85235760  0.84447170    -0.03200
Br1185     Br  0.85315288  0.85402634  0.82618707    -0.02900
H1186       H  0.81308330  0.89084660  0.79627943     0.09200
H1187       H  0.74075477  0.81195816  0.91617608     0.07300
Br1188     Br  0.69927030  0.84450781  0.88628557    -0.03400
C1189       C  0.85108310  0.56086194  0.63108646    -0.10000
C1190       C  0.87627767  0.59144689  0.65410578     0.06200
C1191       C  0.87756648  0.58802921  0.69842098    -0.03800
C1192       C  0.85051504  0.55663385  0.71933043    -0.08200
C1193       C  0.82265794  0.52762448  0.69641989     0.05300
C1194       C  0.82536421  0.52872181  0.65165468    -0.03200
Br1195     Br  0.79491021  0.99007443  0.61527887    -0.02900
H1196       H  0.85039046  0.56253933  0.59696181     0.09200
H1197       H  0.84984785  0.55619992  0.75352453     0.07300
Br1198     Br  0.91343101  0.62694473  0.73214204    -0.03400
C1199       C  0.56211795  0.85610891  0.69908144    -0.10000
C1200       C  0.59434699  0.87801580  0.67690069     0.06200
C1201       C  0.59379692  0.87629508  0.63236096    -0.03800
C1202       C  0.56289653  0.84926169  0.61125922    -0.08200
C1203       C  0.53191757  0.82455058  0.63404639     0.05300
C1204       C  0.53072210  0.83040306  0.67779755    -0.03200
Br1205     Br  0.98683778  0.80400875  0.70981529    -0.02900
H1206       H  0.56178979  0.85787745  0.73318493     0.09200
H1207       H  0.56410028  0.84588708  0.57752321     0.07300
Br1208     Br  0.63569734  0.90777151  0.59932672    -0.03400
C1209       C  0.86037431  0.73373592  0.71342575    -0.10000
C1210       C  0.88793939  0.72430744  0.71603196     0.06200
C1211       C  0.90157482  0.72283947  0.75650559    -0.03800
C1212       C  0.88410064  0.72539501  0.79255948    -0.08200
C1213       C  0.85397965  0.73086960  0.78963706     0.05300
C1214       C  0.84400905  0.73786276  0.74951752    -0.03200
Br1215     Br  0.80905701  0.75394090  0.74124279    -0.02900
H1216       H  0.85083907  0.73736072  0.68296556     0.09200
H1217       H  0.89349289  0.72168330  0.82312530     0.07300
Br1218     Br  0.94324373  0.71703808  0.76630716    -0.03400
C1219       C  0.53315494  0.70824057  0.48264198    -0.10000
C1220       C  0.53219708  0.70536461  0.52714999     0.06200
C1221       C  0.56157839  0.70487949  0.54795103    -0.03800
C1222       C  0.59228487  0.71107775  0.52465597    -0.08200
C1223       C  0.59459880  0.71852682  0.48105431     0.05300
C1224       C  0.56415567  0.71559049  0.45983527    -0.03200
Br1225     Br  0.56480434  0.72449815  0.40018421    -0.02900
H1226       H  0.51075200  0.70775701  0.46561367     0.09200
H1227       H  0.61578375  0.71356318  0.54133239     0.07300
Br1228     Br  0.56393505  0.70089566  0.60818904    -0.03400
C1229       C  0.87605632  0.78181952  0.47766636    -0.10000
C1230       C  0.87205801  0.77476867  0.52133238     0.06200
C1231       C  0.84495534  0.77785344  0.54307783    -0.03800
C1232       C  0.82072575  0.78514627  0.52075075    -0.08200
C1233       C  0.82175643  0.78788377  0.47624639     0.05300
C1234       C  0.85096811  0.78784682  0.45484238    -0.03200
Br1235     Br  0.85577200  0.79075025  0.39445241    -0.02900
H1236       H  0.89671820  0.77914620  0.46058726     0.09200
H1237       H  0.79924826  0.78598837  0.53824512     0.07300
Br1238     Br  0.83837168  0.76977532  0.60289211    -0.03400
C1239       C  0.83998007  0.62848248  0.45520953    -0.10000
C1240       C  0.87696418  0.65557314  0.45514217     0.06200
C1241       C  0.89619039  0.66383416  0.41653029    -0.03800
C1242       C  0.87797383  0.64616456  0.37932577    -0.08200
C1243       C  0.84059674  0.62025649  0.37922223     0.05300
C1244       C  0.82169508  0.61114070  0.41812329    -0.03200
Br1245     Br  0.77023219  0.57808696  0.42358233    -0.02900
H1246       H  0.82441674  0.62178129  0.48417126     0.09200
H1247       H  0.89313048  0.65333482  0.35003892     0.07300
Br1248     Br  0.94717284  0.69858645  0.41162618    -0.03400
loop_ 
_geom_bond_atom_site_label_1 
_geom_bond_atom_site_label_2 
_geom_bond_distance 
_geom_bond_site_symmetry_2 
_ccdc_geom_bond_type 
Fe1          O17   2.053       .  S
Fe1           O7   2.057       .  S
Fe1          O14   2.063       .  S
Fe1           O6   2.056       .  S
Fe1          O12   1.958       .  S
Fe2           O5   2.045       .  S
Fe2           O9   2.088       .  S
Fe2          O13   2.071       .  S
Fe2          O18   2.095       .  S
Fe2          O12   1.975       .  S
Fe3          O21   2.094       .  S
Fe3           O8   2.043       .  S
Fe3          O15   2.060       .  S
Fe3           O4   2.095       .  S
Fe3          O12   1.976       .  S
O4           C11   1.278       .  A
O5           C19   1.265       .  A
O6           C11   1.274       .  A
O7           C10   1.264       .  A
O8           C20   1.267       .  A
O9           C22   1.276       .  A
C10          O15   1.263       .  A
C10         C294   1.475       .  S
C11         C304   1.492       .  S
O13          C16   1.265       .  A
O14          C16   1.264       .  A
C16         C254   1.480       .  S
O17          C22   1.274       .  A
O18          C20   1.275       .  A
C19          O21   1.273       .  A
C19         C891   1.482       .  S
C20         C908   1.489       .  S
C22         C274   1.490       .  S
Fe23         O39   2.052       .  S
Fe23         O29   2.093       .  S
Fe23         O36   2.094       .  S
Fe23         O28   2.045       .  S
Fe23         O34   1.923       .  S
Fe24         O27   2.025       .  S
Fe24         O31   2.079   1_556  S
Fe24         O35   2.063       .  S
Fe24         O40   2.125       .  S
Fe24         O34   1.928       .  S
Fe25         O43   2.148       .  S
Fe25         O30   2.042       .  S
Fe25         O37   2.075       .  S
Fe25         O26   2.096       .  S
Fe25         O34   1.948       .  S
O26          C33   1.277       .  A
O27          C41   1.254       .  A
O28          C33   1.269       .  A
O29          C32   1.275       .  A
O30          C42   1.263       .  A
O31          C44   1.272       .  A
C32          O37   1.274       .  A
C32         C234   1.481       .  S
C33         C277   1.486       .  S
O35          C38   1.271       .  A
O36          C38   1.276       .  A
C38         C224   1.476       .  S
O39          C44   1.269   1_556  A
O40          C42   1.281       .  A
C41          O43   1.281       .  A
C41         C214   1.491       .  S
C42         C247   1.480       .  S
C44         C204   1.477       .  S
Fe45         O61   2.041       .  S
Fe45         O51   2.073       .  S
Fe45         O58   2.085       .  S
Fe45         O50   2.056       .  S
Fe45         O56   1.948       .  S
Fe46         O49   2.051       .  S
Fe46         O53   2.109       .  S
Fe46         O57   2.076       .  S
Fe46         O62   2.117       .  S
Fe46         O56   1.957       .  S
Fe47         O65   2.109       .  S
Fe47         O52   2.034       .  S
Fe47         O59   2.062       .  S
Fe47         O48   2.113       .  S
Fe47         O56   1.952       .  S
O48          C55   1.287       .  A
O49          C63   1.267       .  A
O50          C55   1.275       .  A
O51          C54   1.264       .  A
O52          C64   1.263       .  A
O53          C66   1.282       .  A
C54          O59   1.262       .  A
C54         C264   1.475       .  S
C55         C194   1.499       .  S
O57          C60   1.266       .  A
O58          C60   1.267       .  A
C60         C244   1.489       .  S
O61          C66   1.274       .  A
O62          C64   1.280       .  A
C63          O65   1.278       .  A
C63         C549   1.487       .  S
C64         C569   1.495       .  S
C66         C184   1.491       .  S
Fe67         O83   2.059       .  S
Fe67         O73   2.046       .  S
Fe67         O80   2.051       .  S
Fe67         O72   2.047       .  S
Fe67         O78   1.951       .  S
Fe68         O71   2.034       .  S
Fe68         O75   2.094       .  S
Fe68         O79   2.063       .  S
Fe68         O84   2.092       .  S
Fe68         O78   1.971       .  S
Fe69         O87   2.108       .  S
Fe69         O74   2.050       .  S
Fe69         O81   2.080       .  S
Fe69         O70   2.091   1_554  S
Fe69         O78   1.978       .  S
O70          C77   1.277       .  A
O71          C85   1.265   1_455  A
O72          C77   1.273   1_554  A
O73          C76   1.263       .  A
O74          C86   1.266   1_455  A
O75          C88   1.278       .  A
C76          O81   1.266       .  A
C76         C217   1.488       .  S
C77         C187   1.490       .  S
O79          C82   1.262       .  A
O80          C82   1.262       .  A
C82         C157   1.471       .  S
O83          C88   1.275       .  A
O84          C86   1.274   1_455  A
C85          O87   1.277   1_655  A
C85         C791   1.493       .  S
C86         C851   1.481       .  S
C88         C174   1.495       .  S
Fe89        O105   2.043       .  S
Fe89         O95   2.069       .  S
Fe89        O102   2.059       .  S
Fe89         O94   2.041       .  S
Fe89        O100   1.945       .  S
Fe90         O93   2.032       .  S
Fe90         O97   2.130       .  S
Fe90        O101   2.064       .  S
Fe90        O106   2.127       .  S
Fe90        O100   1.949       .  S
Fe91        O109   2.093       .  S
Fe91         O96   2.027       .  S
Fe91        O103   2.049       .  S
Fe91         O92   2.116       .  S
Fe91        O100   1.953       .  S
O92          C99   1.284       .  A
O93         C107   1.264       .  A
O94          C99   1.274       .  A
O95          C98   1.263       .  A
O96         C108   1.264       .  A
O97         C110   1.290       .  A
C98         O103   1.256       .  A
C98         C144   1.462       .  S
C99         C177   1.495       .  S
O101        C104   1.262       .  A
O102        C104   1.262       .  A
C104        C287   1.471       .  S
O105        C110   1.273       .  A
O106        C108   1.283       .  A
C107        O109   1.273       .  A
C107        C297   1.490       .  S
C108        C134   1.498       .  S
C110        C197   1.500       .  S
Fe111       O127   2.068       .  S
Fe111       O117   2.070       .  S
Fe111       O124   2.076       .  S
Fe111       O116   2.063       .  S
Fe111       O122   1.965       .  S
Fe112       O115   2.039       .  S
Fe112       O119   2.075       .  S
Fe112       O123   2.053       .  S
Fe112       O128   2.082       .  S
Fe112       O122   1.974       .  S
Fe113       O131   2.082       .  S
Fe113       O118   2.047       .  S
Fe113       O125   2.059       .  S
Fe113       O114   2.067       .  S
Fe113       O122   1.984       .  S
O114        C121   1.274       .  A
O115        C129   1.265   1_545  A
O116        C121   1.275       .  A
O117        C120   1.267       .  A
O118        C130   1.265   1_545  A
O119        C132   1.275       .  A
C120        O125   1.262       .  A
C120        C164   1.480       .  S
C121        C207   1.473       .  S
O123        C126   1.262       .  A
O124        C126   1.268       .  A
C126        C137   1.484       .  S
O127        C132   1.275       .  A
O128        C130   1.270   1_545  A
C129        O131   1.271   1_565  A
C129        C459   1.480       .  S
C130        C466   1.480       .  S
C132        C307   1.487       .  S
C133        C134   1.417       .  A
C133        C138   1.401       .  A
C133        H140   1.084       .  S
C134        C135   1.412       .  A
C135        C136   1.405       .  A
C135       Br142   1.918       .  S
C136        C137   1.409       .  A
C136        H141   1.083       .  S
C137        C138   1.404       .  A
C138       Br139   1.921       .  S
C143        C144   1.402       .  A
C143        C148   1.393       .  A
C143        H150   1.084       .  S
C144        C145   1.403       .  A
C145        C146   1.400       .  A
C145       Br152   1.916       .  S
C146        C147   1.407       .  A
C146        H151   1.084       .  S
C147        C441   1.464       .  S
C147        C148   1.406       .  A
C148       Br149   1.921       .  S
C153        C154   1.408       .  A
C153        C158   1.396       .  A
C153        H160   1.083       .  S
C154        C442   1.484       .  S
C154        C155   1.413       .  A
C155        C156   1.404       .  A
C155       Br162   1.920       .  S
C156        C157   1.405       .  A
C156        H161   1.083       .  S
C157        C158   1.404       .  A
C158       Br159   1.920       .  S
C163        C164   1.408       .  A
C163        C168   1.407       .  A
C163        H170   1.083       .  S
C164        C165   1.403       .  A
C165        C166   1.396       .  A
C165       Br172   1.919       .  S
C166        C167   1.412       .  A
C166        H171   1.084       .  S
C167        C709   1.493       .  S
C167        C168   1.413       .  A
C168       Br169   1.919       .  S
C173        C174   1.410       .  A
C173        C178   1.401       .  A
C173        H180   1.082       .  S
C174        C175   1.415       .  A
C175        C176   1.398       .  A
C175       Br182   1.924       .  S
C176        C177   1.410       .  A
C176        H181   1.082       .  S
C177        C178   1.415       .  A
C178       Br179   1.923       .  S
C183        C184   1.410       .  A
C183        C188   1.396       .  A
C183        H190   1.083       .  S
C184        C185   1.414       .  A
C185        C186   1.397       .  A
C185       Br192   1.923       .  S
C186        C187   1.410       .  A
C186        H191   1.082       .  S
C187        C188   1.415       .  A
C188       Br189   1.925       .  S
C193        C194   1.404       .  A
C193        C198   1.399       .  A
C193        H200   1.078       .  S
C194        C195   1.420       .  A
C195        C196   1.406       .  A
C195       Br202   1.923       .  S
C196        C197   1.407       .  A
C196        H201   1.078       .  S
C197        C198   1.421       .  A
C198       Br199   1.925       .  S
C203        C204   1.404       .  A
C203        C208   1.396       .  A
C203        H210   1.084       .  S
C204        C205   1.412       .  A
C205        C206   1.395       .  A
C205       Br212   1.918       .  S
C206        C207   1.402       .  A
C206        H211   1.084       .  S
C207        C208   1.412       .  A
C208       Br209   1.921       .  S
C213        C214   1.407       .  A
C213        C218   1.415       .  A
C213        H220   1.083       .  S
C214        C215   1.419   1_556  A
C215        C216   1.389       .  A
C215       Br222   1.928       .  S
C216        C217   1.398       .  A
C216        H221   1.085       .  S
C217        C218   1.418   1_554  A
C218       Br219   1.917       .  S
C223        C224   1.400       .  A
C223        C228   1.402       .  A
C223        H230   1.083       .  S
C224        C225   1.412   1_556  A
C225        C226   1.402       .  A
C225       Br232   1.917       .  S
C226        C227   1.401       .  A
C226        H231   1.083       .  S
C227        C710   1.481       .  S
C227        C228   1.413   1_554  A
C228       Br229   1.917       .  S
C233        C234   1.400       .  A
C233        C238   1.403       .  A
C233        H240   1.084       .  S
C234        C235   1.412       .  A
C235        C236   1.406       .  A
C235       Br242   1.914       .  S
C236        C237   1.403       .  A
C236        H241   1.083       .  S
C237        C375   1.491       .  S
C237        C238   1.416       .  A
C238       Br239   1.917   1_545  S
C243        C244   1.405       .  A
C243        C248   1.409       .  A
C243        H250   1.082       .  S
C244        C245   1.415       .  A
C245        C246   1.397       .  A
C245       Br252   1.911       .  S
C246        C247   1.397       .  A
C246        H251   1.083       .  S
C247        C248   1.414       .  A
C248       Br249   1.918       .  S
C253        C254   1.399       .  A
C253        C258   1.400       .  A
C253        H260   1.083       .  S
C254        C255   1.412       .  A
C255        C256   1.404       .  A
C255       Br262   1.912       .  S
C256        C257   1.403       .  A
C256        H261   1.083       .  S
C257        C376   1.490       .  S
C257        C258   1.419       .  A
C258       Br571   1.924   1_545  S
Br259       C570   1.922       .  S
C263        C264   1.399       .  A
C263        C268   1.400       .  A
C263        H270   1.083       .  S
C264        C265   1.412       .  A
C265        C266   1.403       .  A
C265       Br272   1.917       .  S
C266        C267   1.402       .  A
C266        H271   1.083       .  S
C267        C643   1.482       .  S
C267        C268   1.413       .  A
C268       Br893   1.917   1_455  S
Br269       C892   1.917       .  S
C273        C274   1.408       .  A
C273        C278   1.395       .  A
C273        H280   1.082       .  S
C274        C275   1.416       .  A
C275        C276   1.398       .  A
C275       Br282   1.922       .  S
C276        C277   1.408       .  A
C276        H281   1.084       .  S
C277        C278   1.411       .  A
C278       Br279   1.923       .  S
C283        C284   1.411       .  A
C283        C288   1.397       .  A
C283        H290   1.080       .  S
C284        C644   1.490       .  S
C284        C285   1.414       .  A
C285        C286   1.405       .  A
C285       Br292   1.920       .  S
C286        C287   1.405       .  A
C286        H291   1.083       .  S
C287        C288   1.403       .  A
C288       Br289   1.920       .  S
C293        C294   1.406       .  A
C293        C298   1.405       .  A
C293        H300   1.084       .  S
C294        C295   1.404       .  A
C295        C296   1.393       .  A
C295       Br302   1.919       .  S
C296        C297   1.410       .  A
C296        H301   1.084       .  S
C297        C298   1.415       .  A
C298       Br299   1.919       .  S
C303        C304   1.407       .  A
C303        C308   1.397       .  A
C303        H310   1.084       .  S
C304        C305   1.416       .  A
C305        C306   1.402       .  A
C305       Br312   1.920       .  S
C306        C307   1.406       .  A
C306        H311   1.084       .  S
C307        C308   1.415       .  A
C308       Br309   1.924       .  S
Fe313       O329   2.049       .  S
Fe313       O319   2.065       .  S
Fe313       O326   2.067       .  S
Fe313       O318   2.054       .  S
Fe313       O324   1.954       .  S
Fe314       O317   2.049       .  S
Fe314       O321   2.090       .  S
Fe314       O325   2.075       .  S
Fe314       O330   2.102       .  S
Fe314       O324   1.973       .  S
Fe315       O333   2.092       .  S
Fe315       O320   2.036       .  S
Fe315       O327   2.055       .  S
Fe315       O316   2.095       .  S
Fe315       O324   1.972       .  S
O316        C323   1.278       .  A
O317        C331   1.266       .  A
O318        C323   1.275       .  A
O319        C322   1.264       .  A
O320        C332   1.266       .  A
O321        C334   1.277       .  A
C322        O327   1.261       .  A
C322        C606   1.473       .  S
C323        C616   1.489       .  S
O325        C328   1.266       .  A
O326        C328   1.265       .  A
C328        C566   1.484       .  S
O329        C334   1.274       .  A
O330        C332   1.276       .  A
C331        O333   1.273       .  A
C331       C1203   1.483       .  S
C332       C1220   1.493       .  S
C334        C586   1.488       .  S
Fe335       O351   2.050       .  S
Fe335       O341   2.095       .  S
Fe335       O348   2.096       .  S
Fe335       O340   2.043       .  S
Fe335       O346   1.923       .  S
Fe336       O339   2.027       .  S
Fe336       O343   2.076   1_556  S
Fe336       O347   2.065       .  S
Fe336       O352   2.121       .  S
Fe336       O346   1.926       .  S
Fe337       O355   2.149       .  S
Fe337       O342   2.042       .  S
Fe337       O349   2.074       .  S
Fe337       O338   2.095       .  S
Fe337       O346   1.946       .  S
O338        C345   1.277       .  A
O339        C353   1.255       .  A
O340        C345   1.269       .  A
O341        C344   1.275       .  A
O342        C354   1.263       .  A
O343        C356   1.272   1_554  A
C344        O349   1.273       .  A
C344        C546   1.481       .  S
C345        C589   1.483       .  S
O347        C350   1.271       .  A
O348        C350   1.276       .  A
C350        C536   1.477       .  S
O351        C356   1.269       .  A
O352        C354   1.281       .  A
C353        O355   1.281       .  A
C353        C526   1.491       .  S
C354        C559   1.478       .  S
C356        C516   1.474   1_556  S
Fe357       O373   2.046       .  S
Fe357       O363   2.069       .  S
Fe357       O370   2.078       .  S
Fe357       O362   2.061       .  S
Fe357       O368   1.952       .  S
Fe358       O361   2.052       .  S
Fe358       O365   2.102       .  S
Fe358       O369   2.076       .  S
Fe358       O374   2.106       .  S
Fe358       O368   1.959       .  S
Fe359       O377   2.111       .  S
Fe359       O364   2.035       .  S
Fe359       O371   2.066       .  S
Fe359       O360   2.109       .  S
Fe359       O368   1.956       .  S
O360        C367   1.287       .  A
O361        C375   1.267   1_565  A
O362        C367   1.276       .  A
O363        C366   1.264       .  A
O364        C376   1.263   1_565  A
O365        C378   1.281       .  A
C366        O371   1.262       .  A
C366        C576   1.476       .  S
C367        C506   1.499       .  S
O369        C372   1.265       .  A
O370        C372   1.266       .  A
C372        C556   1.487       .  S
O373        C378   1.275       .  A
O374        C376   1.277   1_565  A
C375        O377   1.279   1_545  A
C378        C496   1.492       .  S
Fe379       O395   2.057       .  S
Fe379       O385   2.046       .  S
Fe379       O392   2.052       .  S
Fe379       O384   2.046       .  S
Fe379       O390   1.947       .  S
Fe380       O383   2.032       .  S
Fe380       O387   2.098       .  S
Fe380       O391   2.062       .  S
Fe380       O396   2.094       .  S
Fe380       O390   1.968       .  S
Fe381       O399   2.115       .  S
Fe381       O386   2.054       .  S
Fe381       O393   2.087       .  S
Fe381       O382   2.096   1_554  S
Fe381       O390   1.976       .  S
O382        C389   1.278       .  A
O383        C397   1.265   1_455  A
O384        C389   1.273   1_554  A
O385        C388   1.263       .  A
O386        C398   1.268   1_455  A
O387        C400   1.280       .  A
C388        O393   1.268       .  A
C388        C529   1.492       .  S
C389        C499   1.491       .  S
O391        C394   1.262       .  A
O392        C394   1.262       .  A
C394        C469   1.471       .  S
O395        C400   1.275       .  A
O396        C398   1.275   1_455  A
C397        O399   1.279   1_655  A
C397       C1103   1.496       .  S
C398       C1163   1.482       .  S
C400        C486   1.494       .  S
Fe401       O417   2.039       .  S
Fe401       O407   2.072       .  S
Fe401       O414   2.070       .  S
Fe401       O406   2.046       .  S
Fe401       O412   1.943       .  S
Fe402       O405   2.035       .  S
Fe402       O409   2.134       .  S
Fe402       O413   2.058       .  S
Fe402       O418   2.129       .  S
Fe402       O412   1.960       .  S
Fe403       O421   2.096       .  S
Fe403       O408   2.016       .  S
Fe403       O415   2.045       .  S
Fe403       O404   2.107       .  S
Fe403       O412   1.957       .  S
O404        C411   1.280       .  A
O405        C419   1.265       .  A
O406        C411   1.273       .  A
O407        C410   1.266       .  A
O408        C420   1.262       .  A
O409        C422   1.288       .  A
C410        O415   1.259       .  A
C410        C456   1.466       .  S
C411        C489   1.494       .  S
O413        C416   1.262       .  A
O414        C416   1.266       .  A
C416        C599   1.474       .  S
O417        C422   1.269       .  A
O418        C420   1.282       .  A
C419        O421   1.274       .  A
C419        C609   1.490       .  S
C420        C446   1.497       .  S
C422        C509   1.498       .  S
Fe423       O439   2.066       .  S
Fe423       O429   2.075       .  S
Fe423       O436   2.077       .  S
Fe423       O428   2.065       .  S
Fe423       O434   1.966       .  S
Fe424       O427   2.037       .  S
Fe424       O431   2.073       .  S
Fe424       O435   2.051       .  S
Fe424       O440   2.084       .  S
Fe424       O434   1.975       .  S
Fe425       O443   2.075       .  S
Fe425       O430   2.045       .  S
Fe425       O437   2.063       .  S
Fe425       O426   2.062       .  S
Fe425       O434   1.981       .  S
O426        C433   1.271       .  A
O427        C441   1.263       .  A
O428        C433   1.275       .  A
O429        C432   1.268       .  A
O430        C442   1.266       .  A
O431        C444   1.274       .  A
C432        O437   1.264       .  A
C432        C476   1.481       .  S
C433        C519   1.475       .  S
O435        C438   1.261       .  A
O436        C438   1.268       .  A
C438        C449   1.480       .  S
O439        C444   1.275       .  A
O440        C442   1.271       .  A
C441        O443   1.270       .  A
C444        C619   1.487       .  S
C445        C446   1.417       .  A
C445        C450   1.398       .  A
C445        H452   1.084       .  S
C446        C447   1.412       .  A
C447        C448   1.406       .  A
C447       Br454   1.917       .  S
C448        C449   1.409       .  A
C448        H453   1.083       .  S
C449        C450   1.402       .  A
C450       Br451   1.921       .  S
C455        C456   1.405       .  A
C455        C460   1.402       .  A
C455        H462   1.083       .  S
C456        C457   1.400       .  A
C457        C458   1.393       .  A
C457       Br464   1.917       .  S
C458        C459   1.409       .  A
C458        H463   1.084       .  S
C459        C460   1.411       .  A
C460       Br461   1.919       .  S
C465        C466   1.407       .  A
C465        C470   1.396       .  A
C465        H472   1.083       .  S
C466        C467   1.410       .  A
C467        C468   1.405       .  A
C467       Br474   1.919       .  S
C468        C469   1.406       .  A
C468        H473   1.083       .  S
C469        C470   1.404       .  A
C470       Br471   1.920       .  S
C475        C476   1.407       .  A
C475        C480   1.407       .  A
C475        H482   1.083       .  S
C476        C477   1.403       .  A
C477        C478   1.398       .  A
C477       Br484   1.919       .  S
C478        C479   1.413       .  A
C478        H483   1.084       .  S
C479       C1021   1.496       .  S
C479        C480   1.413       .  A
C480       Br481   1.919       .  S
C485        C486   1.409       .  A
C485        C490   1.400       .  A
C485        H492   1.082       .  S
C486        C487   1.414       .  A
C487        C488   1.400       .  A
C487       Br494   1.923       .  S
C488        C489   1.410       .  A
C488        H493   1.082       .  S
C489        C490   1.416       .  A
C490       Br491   1.923       .  S
C495        C496   1.409       .  A
C495        C500   1.397       .  A
C495        H502   1.083       .  S
C496        C497   1.416       .  A
C497        C498   1.396       .  A
C497       Br504   1.924       .  S
C498        C499   1.409       .  A
C498        H503   1.083       .  S
C499        C500   1.415       .  A
C500       Br501   1.924       .  S
C505        C506   1.402       .  A
C505        C510   1.395       .  A
C505        H512   1.077       .  S
C506        C507   1.420       .  A
C507        C508   1.409       .  A
C507       Br514   1.922       .  S
C508        C509   1.408       .  A
C508        H513   1.079       .  S
C509        C510   1.421       .  A
C510       Br511   1.927       .  S
C515        C516   1.402       .  A
C515        C520   1.394       .  A
C515        H522   1.084       .  S
C516        C517   1.411       .  A
C517        C518   1.396       .  A
C517       Br524   1.919       .  S
C518        C519   1.403       .  A
C518        H523   1.084       .  S
C519        C520   1.415       .  A
C520       Br521   1.922       .  S
C525        C526   1.408       .  A
C525        C530   1.417       .  A
C525        H532   1.083       .  S
C526        C527   1.418   1_556  A
C527        C528   1.388       .  A
C527       Br534   1.929       .  S
C528        C529   1.400       .  A
C528        H533   1.084       .  S
C529        C530   1.418   1_554  A
C530       Br531   1.917       .  S
C535        C536   1.400       .  A
C535        C540   1.402       .  A
C535        H542   1.083       .  S
C536        C537   1.412   1_556  A
C537        C538   1.402       .  A
C537       Br544   1.916       .  S
C538        C539   1.401       .  A
C538        H543   1.083       .  S
C539       C1022   1.482       .  S
C539        C540   1.413   1_554  A
C540       Br541   1.916       .  S
C545        C546   1.400       .  A
C545        C550   1.404       .  A
C545        H552   1.083       .  S
C546        C547   1.412       .  A
C547        C548   1.404       .  A
C547       Br554   1.913       .  S
C548        C549   1.402       .  A
C548        H553   1.083       .  S
C549        C550   1.415       .  A
C550       Br551   1.917       .  S
C555        C556   1.405       .  A
C555        C560   1.409       .  A
C555        H562   1.082       .  S
C556        C557   1.415       .  A
C557        C558   1.395       .  A
C557       Br564   1.911       .  S
C558        C559   1.396       .  A
C558        H563   1.084       .  S
C559        C560   1.414       .  A
C560       Br561   1.918       .  S
C565        C566   1.398       .  A
C565        C570   1.400       .  A
C565        H572   1.083       .  S
C566        C567   1.412       .  A
C567        C568   1.407       .  A
C567       Br574   1.910       .  S
C568        C569   1.404       .  A
C568        H573   1.083       .  S
C569        C570   1.421       .  A
C575        C576   1.399       .  A
C575        C580   1.400       .  A
C575        H582   1.083       .  S
C576        C577   1.411       .  A
C577        C578   1.403       .  A
C577       Br584   1.913       .  S
C578        C579   1.402       .  A
C578        H583   1.083       .  S
C579        C955   1.483       .  S
C579        C580   1.413       .  A
C580      Br1205   1.915   1_455  S
Br581      C1204   1.915       .  S
C585        C586   1.408       .  A
C585        C590   1.395       .  A
C585        H592   1.082       .  S
C586        C587   1.416       .  A
C587        C588   1.397       .  A
C587       Br594   1.921       .  S
C588        C589   1.407       .  A
C588        H593   1.083       .  S
C589        C590   1.410       .  A
C590       Br591   1.923       .  S
C595        C596   1.412       .  A
C595        C600   1.396       .  A
C595        H602   1.081       .  S
C596        C956   1.493       .  S
C596        C597   1.414       .  A
C597        C598   1.406       .  A
C597       Br604   1.919       .  S
C598        C599   1.406       .  A
C598        H603   1.083       .  S
C599        C600   1.402       .  A
C600       Br601   1.920       .  S
C605        C606   1.405       .  A
C605        C610   1.404       .  A
C605        H612   1.084       .  S
C606        C607   1.402       .  A
C607        C608   1.395       .  A
C607       Br614   1.918       .  S
C608        C609   1.412       .  A
C608        H613   1.083       .  S
C609        C610   1.415       .  A
C610       Br611   1.920       .  S
C615        C616   1.406       .  A
C615        C620   1.395       .  A
C615        H622   1.083       .  S
C616        C617   1.415       .  A
C617        C618   1.401       .  A
C617       Br624   1.920       .  S
C618        C619   1.407       .  A
C618        H623   1.083       .  S
C619        C620   1.416       .  A
C620       Br621   1.925       .  S
Fe625       O641   2.053       .  S
Fe625       O631   2.057       .  S
Fe625       O638   2.063       .  S
Fe625       O630   2.056       .  S
Fe625       O636   1.958       .  S
Fe626       O629   2.045       .  S
Fe626       O633   2.088       .  S
Fe626       O637   2.071       .  S
Fe626       O642   2.096       .  S
Fe626       O636   1.975       .  S
Fe627       O645   2.094       .  S
Fe627       O632   2.043       .  S
Fe627       O639   2.060       .  S
Fe627       O628   2.095       .  S
Fe627       O636   1.976       .  S
O628        C635   1.278       .  A
O629        C643   1.265   1_655  A
O630        C635   1.274       .  A
O631        C634   1.264       .  A
O632        C644   1.267   1_655  A
O633        C646   1.276       .  A
C634        O639   1.263       .  A
C634        C918   1.475       .  S
C635        C928   1.492       .  S
O637        C640   1.265       .  A
O638        C640   1.264       .  A
C640        C878   1.480       .  S
O641        C646   1.274       .  A
O642        C644   1.275   1_655  A
C643        O645   1.273   1_455  A
C646        C898   1.490       .  S
Fe647       O663   2.052       .  S
Fe647       O653   2.092       .  S
Fe647       O660   2.095       .  S
Fe647       O652   2.045       .  S
Fe647       O658   1.923       .  S
Fe648       O651   2.025       .  S
Fe648       O655   2.079   1_556  S
Fe648       O659   2.063       .  S
Fe648       O664   2.125       .  S
Fe648       O658   1.928       .  S
Fe649       O667   2.148       .  S
Fe649       O654   2.042       .  S
Fe649       O661   2.075       .  S
Fe649       O650   2.096       .  S
Fe649       O658   1.948       .  S
O650        C657   1.277       .  A
O651        C665   1.254       .  A
O652        C657   1.269       .  A
O653        C656   1.275       .  A
O654        C666   1.263       .  A
O655        C668   1.272       .  A
C656        O661   1.274       .  A
C656        C858   1.481       .  S
C657        C901   1.486       .  S
O659        C662   1.271       .  A
O660        C662   1.276       .  A
C662        C848   1.476       .  S
O663        C668   1.269   1_556  A
O664        C666   1.281       .  A
C665        O667   1.281       .  A
C665        C838   1.491       .  S
C666        C871   1.480       .  S
C668        C828   1.477       .  S
Fe669       O685   2.041       .  S
Fe669       O675   2.073       .  S
Fe669       O682   2.085       .  S
Fe669       O674   2.056       .  S
Fe669       O680   1.948       .  S
Fe670       O673   2.051       .  S
Fe670       O677   2.109       .  S
Fe670       O681   2.076       .  S
Fe670       O686   2.117       .  S
Fe670       O680   1.957       .  S
Fe671       O689   2.109       .  S
Fe671       O676   2.034       .  S
Fe671       O683   2.062       .  S
Fe671       O672   2.113       .  S
Fe671       O680   1.952       .  S
O672        C679   1.287       .  A
O673        C687   1.267       .  A
O674        C679   1.275       .  A
O675        C678   1.264       .  A
O676        C688   1.263       .  A
O677        C690   1.282       .  A
C678        O683   1.262       .  A
C678        C888   1.475       .  S
C679        C818   1.499       .  S
O681        C684   1.266       .  A
O682        C684   1.267       .  A
C684        C868   1.489       .  S
O685        C690   1.274       .  A
O686        C688   1.280       .  A
C687        O689   1.278       .  A
C687       C1173   1.487       .  S
C688       C1193   1.495       .  S
C690        C808   1.491       .  S
Fe691       O707   2.059       .  S
Fe691       O697   2.046       .  S
Fe691       O704   2.051       .  S
Fe691       O696   2.047       .  S
Fe691       O702   1.951       .  S
Fe692       O695   2.034       .  S
Fe692       O699   2.094       .  S
Fe692       O703   2.063       .  S
Fe692       O708   2.092       .  S
Fe692       O702   1.971       .  S
Fe693       O711   2.108       .  S
Fe693       O698   2.050       .  S
Fe693       O705   2.080       .  S
Fe693       O694   2.091   1_554  S
Fe693       O702   1.978       .  S
O694        C701   1.277       .  A
O695        C709   1.265       .  A
O696        C701   1.273   1_554  A
O697        C700   1.263       .  A
O698        C710   1.266       .  A
O699        C712   1.278       .  A
C700        O705   1.266       .  A
C700        C841   1.488       .  S
C701        C811   1.490       .  S
O703        C706   1.262       .  A
O704        C706   1.262       .  A
C706        C781   1.471       .  S
O707        C712   1.275       .  A
O708        C710   1.274       .  A
C709        O711   1.277       .  A
C712        C798   1.495       .  S
Fe713       O729   2.043       .  S
Fe713       O719   2.069       .  S
Fe713       O726   2.059       .  S
Fe713       O718   2.041       .  S
Fe713       O724   1.945       .  S
Fe714       O717   2.032       .  S
Fe714       O721   2.130       .  S
Fe714       O725   2.064       .  S
Fe714       O730   2.126       .  S
Fe714       O724   1.949       .  S
Fe715       O733   2.093       .  S
Fe715       O720   2.027       .  S
Fe715       O727   2.049       .  S
Fe715       O716   2.116       .  S
Fe715       O724   1.953       .  S
O716        C723   1.284       .  A
O717        C731   1.264       .  A
O718        C723   1.274       .  A
O719        C722   1.263       .  A
O720        C732   1.264       .  A
O721        C734   1.290       .  A
C722        O727   1.256       .  A
C722        C768   1.462       .  S
C723        C801   1.495       .  S
O725        C728   1.262       .  A
O726        C728   1.262       .  A
C728        C911   1.471       .  S
O729        C734   1.273       .  A
O730        C732   1.283       .  A
C731        O733   1.273       .  A
C731        C921   1.490       .  S
C732        C758   1.498       .  S
C734        C821   1.500       .  S
Fe735       O751   2.068       .  S
Fe735       O741   2.070       .  S
Fe735       O748   2.076       .  S
Fe735       O740   2.063       .  S
Fe735       O746   1.965       .  S
Fe736       O739   2.039       .  S
Fe736       O743   2.075       .  S
Fe736       O747   2.053       .  S
Fe736       O752   2.082       .  S
Fe736       O746   1.974       .  S
Fe737       O755   2.082       .  S
Fe737       O742   2.047       .  S
Fe737       O749   2.059       .  S
Fe737       O738   2.067       .  S
Fe737       O746   1.983       .  S
O738        C745   1.274       .  A
O739        C753   1.265   1_545  A
O740        C745   1.275       .  A
O741        C744   1.267       .  A
O742        C754   1.265   1_545  A
O743        C756   1.275       .  A
C744        O749   1.262       .  A
C744        C788   1.480       .  S
C745        C831   1.473       .  S
O747        C750   1.262       .  A
O748        C750   1.268       .  A
C750        C761   1.484       .  S
O751        C756   1.275       .  A
O752        C754   1.270   1_545  A
C753        O755   1.271   1_565  A
C753       C1083   1.480       .  S
C754       C1090   1.480       .  S
C756        C931   1.487       .  S
C757        C758   1.417       .  A
C757        C762   1.401       .  A
C757        H764   1.084       .  S
C758        C759   1.412       .  A
C759        C760   1.405       .  A
C759       Br766   1.918       .  S
C760        C761   1.409       .  A
C760        H765   1.083       .  S
C761        C762   1.404       .  A
C762       Br763   1.921       .  S
C767        C768   1.402       .  A
C767        C772   1.393       .  A
C767        H774   1.084       .  S
C768        C769   1.403       .  A
C769        C770   1.400       .  A
C769       Br776   1.916       .  S
C770        C771   1.407       .  A
C770        H775   1.084       .  S
C771       C1065   1.464       .  S
C771        C772   1.406       .  A
C772       Br773   1.921       .  S
C777        C778   1.408       .  A
C777        C782   1.396       .  A
C777        H784   1.083       .  S
C778       C1066   1.484       .  S
C778        C779   1.413       .  A
C779        C780   1.404       .  A
C779       Br786   1.920       .  S
C780        C781   1.405       .  A
C780        H785   1.083       .  S
C781        C782   1.404       .  A
C782       Br783   1.920       .  S
C787        C788   1.408       .  A
C787        C792   1.407       .  A
C787        H794   1.084       .  S
C788        C789   1.403       .  A
C789        C790   1.396       .  A
C789       Br796   1.919       .  S
C790        C791   1.412       .  A
C790        H795   1.084       .  S
C791        C792   1.413       .  A
C792       Br793   1.919       .  S
C797        C798   1.410       .  A
C797        C802   1.401       .  A
C797        H804   1.082       .  S
C798        C799   1.415       .  A
C799        C800   1.398       .  A
C799       Br806   1.924       .  S
C800        C801   1.410       .  A
C800        H805   1.082       .  S
C801        C802   1.415       .  A
C802       Br803   1.923       .  S
C807        C808   1.410       .  A
C807        C812   1.396       .  A
C807        H814   1.083       .  S
C808        C809   1.414       .  A
C809        C810   1.397       .  A
C809       Br816   1.923       .  S
C810        C811   1.410       .  A
C810        H815   1.082       .  S
C811        C812   1.415       .  A
C812       Br813   1.925       .  S
C817        C818   1.404       .  A
C817        C822   1.399       .  A
C817        H824   1.078       .  S
C818        C819   1.420       .  A
C819        C820   1.406       .  A
C819       Br826   1.923       .  S
C820        C821   1.407       .  A
C820        H825   1.078       .  S
C821        C822   1.421       .  A
C822       Br823   1.925       .  S
C827        C828   1.404       .  A
C827        C832   1.396       .  A
C827        H834   1.084       .  S
C828        C829   1.412       .  A
C829        C830   1.395       .  A
C829       Br836   1.918       .  S
C830        C831   1.402       .  A
C830        H835   1.084       .  S
C831        C832   1.412       .  A
C832       Br833   1.921       .  S
C837        C838   1.407       .  A
C837        C842   1.415       .  A
C837        H844   1.083       .  S
C838        C839   1.419   1_556  A
C839        C840   1.389       .  A
C839       Br846   1.928       .  S
C840        C841   1.398       .  A
C840        H845   1.085       .  S
C841        C842   1.418   1_554  A
C842       Br843   1.917       .  S
C847        C848   1.400       .  A
C847        C852   1.402       .  A
C847        H854   1.083       .  S
C848        C849   1.412   1_556  A
C849        C850   1.402       .  A
C849       Br856   1.917       .  S
C850        C851   1.401       .  A
C850        H855   1.083       .  S
C851        C852   1.413   1_554  A
C852       Br853   1.917   1_655  S
C857        C858   1.400       .  A
C857        C862   1.403       .  A
C857        H864   1.084       .  S
C858        C859   1.412       .  A
C859        C860   1.406       .  A
C859       Br866   1.914       .  S
C860        C861   1.403       .  A
C860        H865   1.083       .  S
C861        C999   1.491       .  S
C861        C862   1.416       .  A
C862       Br863   1.917   1_545  S
C867        C868   1.405       .  A
C867        C872   1.409       .  A
C867        H874   1.082       .  S
C868        C869   1.415       .  A
C869        C870   1.397       .  A
C869       Br876   1.911       .  S
C870        C871   1.397       .  A
C870        H875   1.083       .  S
C871        C872   1.414       .  A
C872       Br873   1.918       .  S
C877        C878   1.399       .  A
C877        C882   1.400       .  A
C877        H884   1.083       .  S
C878        C879   1.412       .  A
C879        C880   1.404       .  A
C879       Br886   1.912       .  S
C880        C881   1.403       .  A
C880        H885   1.083       .  S
C881       C1000   1.490       .  S
C881        C882   1.419       .  A
C882      Br1195   1.924   1_545  S
Br883      C1194   1.921       .  S
C887        C888   1.399       .  A
C887        C892   1.400       .  A
C887        H894   1.083       .  S
C888        C889   1.412       .  A
C889        C890   1.403       .  A
C889       Br896   1.917       .  S
C890        C891   1.402       .  A
C890        H895   1.083       .  S
C891        C892   1.413       .  A
C897        C898   1.408       .  A
C897        C902   1.395       .  A
C897        H904   1.082       .  S
C898        C899   1.416       .  A
C899        C900   1.398       .  A
C899       Br906   1.922       .  S
C900        C901   1.408       .  A
C900        H905   1.084       .  S
C901        C902   1.411       .  A
C902       Br903   1.923       .  S
C907        C908   1.411       .  A
C907        C912   1.397       .  A
C907        H914   1.080       .  S
C908        C909   1.414       .  A
C909        C910   1.404       .  A
C909       Br916   1.920       .  S
C910        C911   1.405       .  A
C910        H915   1.083       .  S
C911        C912   1.403       .  A
C912       Br913   1.920       .  S
C917        C918   1.406       .  A
C917        C922   1.405       .  A
C917        H924   1.084       .  S
C918        C919   1.404       .  A
C919        C920   1.393       .  A
C919       Br926   1.919       .  S
C920        C921   1.410       .  A
C920        H925   1.084       .  S
C921        C922   1.415       .  A
C922       Br923   1.919       .  S
C927        C928   1.407       .  A
C927        C932   1.397       .  A
C927        H934   1.084       .  S
C928        C929   1.416       .  A
C929        C930   1.402       .  A
C929       Br936   1.920       .  S
C930        C931   1.406       .  A
C930        H935   1.084       .  S
C931        C932   1.415       .  A
C932       Br933   1.924       .  S
Fe937       O953   2.049       .  S
Fe937       O943   2.065       .  S
Fe937       O950   2.067       .  S
Fe937       O942   2.054       .  S
Fe937       O948   1.954       .  S
Fe938       O941   2.049       .  S
Fe938       O945   2.090       .  S
Fe938       O949   2.075       .  S
Fe938       O954   2.102       .  S
Fe938       O948   1.973       .  S
Fe939       O957   2.092       .  S
Fe939       O944   2.036       .  S
Fe939       O951   2.055       .  S
Fe939       O940   2.095       .  S
Fe939       O948   1.972       .  S
O940        C947   1.278       .  A
O941        C955   1.266   1_655  A
O942        C947   1.275       .  A
O943        C946   1.264       .  A
O944        C956   1.266   1_655  A
O945        C958   1.277       .  A
C946        O951   1.261       .  A
C946       C1230   1.473       .  S
C947       C1240   1.489       .  S
O949        C952   1.266       .  A
O950        C952   1.265       .  A
C952       C1190   1.484       .  S
O953        C958   1.274       .  A
O954        C956   1.276   1_655  A
C955        O957   1.273   1_455  A
C958       C1210   1.488       .  S
Fe959       O975   2.050       .  S
Fe959       O965   2.094       .  S
Fe959       O972   2.096       .  S
Fe959       O964   2.043       .  S
Fe959       O970   1.923       .  S
Fe960       O963   2.027       .  S
Fe960       O967   2.076   1_556  S
Fe960       O971   2.065       .  S
Fe960       O976   2.121       .  S
Fe960       O970   1.926       .  S
Fe961       O979   2.149       .  S
Fe961       O966   2.042       .  S
Fe961       O973   2.074       .  S
Fe961       O962   2.094       .  S
Fe961       O970   1.946       .  S
O962        C969   1.277       .  A
O963        C977   1.255       .  A
O964        C969   1.269       .  A
O965        C968   1.275       .  A
O966        C978   1.263       .  A
O967        C980   1.272       .  A
C968        O973   1.273       .  A
C968       C1170   1.481       .  S
C969       C1213   1.483       .  S
O971        C974   1.271       .  A
O972        C974   1.276       .  A
C974       C1160   1.477       .  S
O975        C980   1.269   1_556  A
O976        C978   1.281       .  A
C977        O979   1.281       .  A
C977       C1150   1.491       .  S
C978       C1183   1.478       .  S
C980       C1140   1.474       .  S
Fe981       O997   2.046       .  S
Fe981       O987   2.069       .  S
Fe981       O994   2.078       .  S
Fe981       O986   2.061       .  S
Fe981       O992   1.952       .  S
Fe982       O985   2.052       .  S
Fe982       O989   2.102       .  S
Fe982       O993   2.076       .  S
Fe982       O998   2.106       .  S
Fe982       O992   1.959       .  S
Fe983      O1001   2.111       .  S
Fe983       O988   2.035       .  S
Fe983       O995   2.066       .  S
Fe983       O984   2.109       .  S
Fe983       O992   1.956       .  S
O984        C991   1.287       .  A
O985        C999   1.267   1_565  A
O986        C991   1.276       .  A
O987        C990   1.264       .  A
O988       C1000   1.263   1_565  A
O989       C1002   1.281       .  A
C990        O995   1.262       .  A
C990       C1200   1.476       .  S
C991       C1130   1.499       .  S
O993        C996   1.265       .  A
O994        C996   1.266       .  A
C996       C1180   1.487       .  S
O997       C1002   1.275       .  A
O998       C1000   1.277   1_565  A
C999       O1001   1.279   1_545  A
C1002      C1120   1.491       .  S
Fe1003     O1019   2.057       .  S
Fe1003     O1009   2.046       .  S
Fe1003     O1016   2.052       .  S
Fe1003     O1008   2.046       .  S
Fe1003     O1014   1.947       .  S
Fe1004     O1007   2.032       .  S
Fe1004     O1011   2.098       .  S
Fe1004     O1015   2.062       .  S
Fe1004     O1020   2.094       .  S
Fe1004     O1014   1.968       .  S
Fe1005     O1023   2.115       .  S
Fe1005     O1010   2.054       .  S
Fe1005     O1017   2.087       .  S
Fe1005     O1006   2.096   1_554  S
Fe1005     O1014   1.976       .  S
O1006      C1013   1.278       .  A
O1007      C1021   1.265       .  A
O1008      C1013   1.273   1_554  A
O1009      C1012   1.263       .  A
O1010      C1022   1.268       .  A
O1011      C1024   1.280       .  A
C1012      O1017   1.268       .  A
C1012      C1153   1.492       .  S
C1013      C1123   1.491       .  S
O1015      C1018   1.262       .  A
O1016      C1018   1.262       .  A
C1018      C1093   1.471       .  S
O1019      C1024   1.275       .  A
O1020      C1022   1.275       .  A
C1021      O1023   1.279       .  A
C1024      C1110   1.494       .  S
Fe1025     O1041   2.038       .  S
Fe1025     O1031   2.072       .  S
Fe1025     O1038   2.069       .  S
Fe1025     O1030   2.046       .  S
Fe1025     O1036   1.943       .  S
Fe1026     O1029   2.035       .  S
Fe1026     O1033   2.133       .  S
Fe1026     O1037   2.058       .  S
Fe1026     O1042   2.128       .  S
Fe1026     O1036   1.960       .  S
Fe1027     O1045   2.096       .  S
Fe1027     O1032   2.016       .  S
Fe1027     O1039   2.045       .  S
Fe1027     O1028   2.107       .  S
Fe1027     O1036   1.957       .  S
O1028      C1035   1.280       .  A
O1029      C1043   1.265       .  A
O1030      C1035   1.273       .  A
O1031      C1034   1.266       .  A
O1032      C1044   1.262       .  A
O1033      C1046   1.288       .  A
C1034      O1039   1.259       .  A
C1034      C1080   1.466       .  S
C1035      C1113   1.494       .  S
O1037      C1040   1.262       .  A
O1038      C1040   1.266       .  A
C1040      C1223   1.474       .  S
O1041      C1046   1.269       .  A
O1042      C1044   1.282       .  A
C1043      O1045   1.274       .  A
C1043      C1233   1.490       .  S
C1044      C1070   1.497       .  S
C1046      C1133   1.498       .  S
Fe1047     O1063   2.066       .  S
Fe1047     O1053   2.076       .  S
Fe1047     O1060   2.077       .  S
Fe1047     O1052   2.065       .  S
Fe1047     O1058   1.966       .  S
Fe1048     O1051   2.037       .  S
Fe1048     O1055   2.073       .  S
Fe1048     O1059   2.051       .  S
Fe1048     O1064   2.084       .  S
Fe1048     O1058   1.975       .  S
Fe1049     O1067   2.075       .  S
Fe1049     O1054   2.045       .  S
Fe1049     O1061   2.063       .  S
Fe1049     O1050   2.062       .  S
Fe1049     O1058   1.981       .  S
O1050      C1057   1.271       .  A
O1051      C1065   1.263       .  A
O1052      C1057   1.275       .  A
O1053      C1056   1.268       .  A
O1054      C1066   1.266       .  A
O1055      C1068   1.274       .  A
C1056      O1061   1.264       .  A
C1056      C1100   1.481       .  S
C1057      C1143   1.475       .  S
O1059      C1062   1.261       .  A
O1060      C1062   1.268       .  A
C1062      C1073   1.480       .  S
O1063      C1068   1.275       .  A
O1064      C1066   1.271       .  A
C1065      O1067   1.270       .  A
C1068      C1243   1.487       .  S
C1069      C1070   1.417       .  A
C1069      C1074   1.398       .  A
C1069      H1076   1.084       .  S
C1070      C1071   1.412       .  A
C1071      C1072   1.406       .  A
C1071     Br1078   1.917       .  S
C1072      C1073   1.409       .  A
C1072      H1077   1.083       .  S
C1073      C1074   1.402       .  A
C1074     Br1075   1.921       .  S
C1079      C1080   1.405       .  A
C1079      C1084   1.402       .  A
C1079      H1086   1.083       .  S
C1080      C1081   1.400       .  A
C1081      C1082   1.393       .  A
C1081     Br1088   1.917       .  S
C1082      C1083   1.409       .  A
C1082      H1087   1.084       .  S
C1083      C1084   1.411       .  A
C1084     Br1085   1.919       .  S
C1089      C1090   1.407       .  A
C1089      C1094   1.396       .  A
C1089      H1096   1.083       .  S
C1090      C1091   1.410       .  A
C1091      C1092   1.405       .  A
C1091     Br1098   1.919       .  S
C1092      C1093   1.406       .  A
C1092      H1097   1.083       .  S
C1093      C1094   1.404       .  A
C1094     Br1095   1.920       .  S
C1099      C1100   1.407       .  A
C1099      C1104   1.407       .  A
C1099      H1106   1.083       .  S
C1100      C1101   1.403       .  A
C1101      C1102   1.398       .  A
C1101     Br1108   1.919       .  S
C1102      C1103   1.413       .  A
C1102      H1107   1.084       .  S
C1103      C1104   1.413       .  A
C1104     Br1105   1.919       .  S
C1109      C1110   1.409       .  A
C1109      C1114   1.400       .  A
C1109      H1116   1.082       .  S
C1110      C1111   1.414       .  A
C1111      C1112   1.400       .  A
C1111     Br1118   1.923       .  S
C1112      C1113   1.410       .  A
C1112      H1117   1.082       .  S
C1113      C1114   1.416       .  A
C1114     Br1115   1.923       .  S
C1119      C1120   1.409       .  A
C1119      C1124   1.397       .  A
C1119      H1126   1.083       .  S
C1120      C1121   1.416       .  A
C1121      C1122   1.396       .  A
C1121     Br1128   1.924       .  S
C1122      C1123   1.409       .  A
C1122      H1127   1.083       .  S
C1123      C1124   1.415       .  A
C1124     Br1125   1.924       .  S
C1129      C1130   1.402       .  A
C1129      C1134   1.395       .  A
C1129      H1136   1.078       .  S
C1130      C1131   1.419       .  A
C1131      C1132   1.409       .  A
C1131     Br1138   1.922       .  S
C1132      C1133   1.408       .  A
C1132      H1137   1.079       .  S
C1133      C1134   1.421       .  A
C1134     Br1135   1.927       .  S
C1139      C1140   1.402       .  A
C1139      C1144   1.394       .  A
C1139      H1146   1.084       .  S
C1140      C1141   1.411       .  A
C1141      C1142   1.396       .  A
C1141     Br1148   1.919       .  S
C1142      C1143   1.403       .  A
C1142      H1147   1.084       .  S
C1143      C1144   1.415       .  A
C1144     Br1145   1.922       .  S
C1149      C1150   1.408       .  A
C1149      C1154   1.417       .  A
C1149      H1156   1.083       .  S
C1150      C1151   1.418   1_556  A
C1151      C1152   1.388       .  A
C1151     Br1158   1.929       .  S
C1152      C1153   1.400       .  A
C1152      H1157   1.084       .  S
C1153      C1154   1.418   1_554  A
C1154     Br1155   1.917       .  S
C1159      C1160   1.400       .  A
C1159      C1164   1.402       .  A
C1159      H1166   1.083       .  S
C1160      C1161   1.412   1_556  A
C1161      C1162   1.402       .  A
C1161     Br1168   1.916       .  S
C1162      C1163   1.401       .  A
C1162      H1167   1.083       .  S
C1163      C1164   1.413   1_554  A
C1164     Br1165   1.916   1_655  S
C1169      C1170   1.400       .  A
C1169      C1174   1.404       .  A
C1169      H1176   1.083       .  S
C1170      C1171   1.412       .  A
C1171      C1172   1.404       .  A
C1171     Br1178   1.913       .  S
C1172      C1173   1.402       .  A
C1172      H1177   1.083       .  S
C1173      C1174   1.415       .  A
C1174     Br1175   1.917       .  S
C1179      C1180   1.405       .  A
C1179      C1184   1.409       .  A
C1179      H1186   1.082       .  S
C1180      C1181   1.415       .  A
C1181      C1182   1.395       .  A
C1181     Br1188   1.911       .  S
C1182      C1183   1.396       .  A
C1182      H1187   1.084       .  S
C1183      C1184   1.414       .  A
C1184     Br1185   1.918       .  S
C1189      C1190   1.398       .  A
C1189      C1194   1.400       .  A
C1189      H1196   1.083       .  S
C1190      C1191   1.412       .  A
C1191      C1192   1.407       .  A
C1191     Br1198   1.910       .  S
C1192      C1193   1.404       .  A
C1192      H1197   1.083       .  S
C1193      C1194   1.421       .  A
C1199      C1200   1.399       .  A
C1199      C1204   1.400       .  A
C1199      H1206   1.083       .  S
C1200      C1201   1.411       .  A
C1201      C1202   1.403       .  A
C1201     Br1208   1.913       .  S
C1202      C1203   1.402       .  A
C1202      H1207   1.083       .  S
C1203      C1204   1.413       .  A
C1209      C1210   1.408       .  A
C1209      C1214   1.395       .  A
C1209      H1216   1.082       .  S
C1210      C1211   1.416       .  A
C1211      C1212   1.397       .  A
C1211     Br1218   1.921       .  S
C1212      C1213   1.407       .  A
C1212      H1217   1.083       .  S
C1213      C1214   1.410       .  A
C1214     Br1215   1.923       .  S
C1219      C1220   1.412       .  A
C1219      C1224   1.396       .  A
C1219      H1226   1.081       .  S
C1220      C1221   1.414       .  A
C1221      C1222   1.406       .  A
C1221     Br1228   1.919       .  S
C1222      C1223   1.406       .  A
C1222      H1227   1.083       .  S
C1223      C1224   1.402       .  A
C1224     Br1225   1.920       .  S
C1229      C1230   1.405       .  A
C1229      C1234   1.404       .  A
C1229      H1236   1.084       .  S
C1230      C1231   1.402       .  A
C1231      C1232   1.395       .  A
C1231     Br1238   1.918       .  S
C1232      C1233   1.412       .  A
C1232      H1237   1.083       .  S
C1233      C1234   1.415       .  A
C1234     Br1235   1.920       .  S
C1239      C1240   1.406       .  A
C1239      C1244   1.395       .  A
C1239      H1246   1.083       .  S
C1240      C1241   1.415       .  A
C1241      C1242   1.401       .  A
C1241     Br1248   1.920       .  S
C1242      C1243   1.407       .  A
C1242      H1247   1.083       .  S
C1243      C1244   1.416       .  A
C1244     Br1245   1.925       .  S
