geometry optimzed in LAMMPS
_audit_creation_date              2020-12-01 
_audit_creation_method            'lammps2cif' 
_symmetry_space_group_name_H-M    'P1' 
_symmetry_Int_Tables_number       1 
_symmetry_cell_setting            triclinic 
loop_ 
_symmetry_equiv_pos_as_xyz 
  x,y,z 
_cell_length_a                    53.53919245 
_cell_length_b                    53.70583692656119 
_cell_length_c                    53.554406481216574 
_cell_angle_alpha                 90.01552280204014 
_cell_angle_beta                  89.99472273863643 
_cell_angle_gamma                 90.05961063285409 
loop_ 
_atom_site_label 
_atom_site_type_symbol 
_atom_site_fract_x 
_atom_site_fract_y 
_atom_site_fract_z 
_atom_site_charge 
N1          N  0.00020659  0.22277237  0.53800930    -0.35800
N2          N  0.03714477  0.22228055  0.49810631    -0.56400
N3          N  0.99679748  0.22000390  0.46139158    -0.35800
N4          N  0.95978579  0.22346765  0.50110844    -0.56400
C5          C  0.02118387  0.22754455  0.55139155     0.27700
C6          C  0.98040519  0.22753214  0.55302299     0.27800
C7          C  0.01663121  0.22365999  0.44611406     0.27700
C8          C  0.97593116  0.22439451  0.44777238     0.27700
C9          C  0.05288353  0.22052352  0.51780190     0.36400
C10         C  0.05101454  0.21845502  0.47734160     0.36400
C11         C  0.94593599  0.22090077  0.52208206     0.36400
C12         C  0.94411769  0.21991196  0.48158632     0.36400
C13         C  0.01457783  0.23506329  0.57526371    -0.21100
C14         C  0.98892211  0.23500723  0.57630841    -0.21100
C15         C  0.00820524  0.23000676  0.42245954    -0.21100
C16         C  0.98261016  0.23060209  0.42354583    -0.21100
C17         C  0.07693156  0.21580979  0.50947993    -0.22200
C18         C  0.07575950  0.21454033  0.48387549    -0.22200
C19         C  0.92127132  0.21605110  0.51583060    -0.22200
C20         C  0.92013145  0.21539259  0.49019317    -0.22200
C21         C  0.04616338  0.22439594  0.54309963    -0.17500
C22         C  0.95486336  0.22427435  0.54676221    -0.17500
C23         C  0.95095123  0.22170694  0.45609681    -0.17500
C24         C  0.04210194  0.22038262  0.45251337    -0.17500
H25         H  0.02695859  0.24001415  0.59045460     0.15400
H26         H  0.97781458  0.23988618  0.59246954     0.15400
H27         H  0.01927717  0.23372987  0.40597437     0.15400
H28         H  0.97031192  0.23495988  0.40811601     0.15400
H29         H  0.09364534  0.21381146  0.52066666     0.13700
H30         H  0.09142384  0.21147120  0.47147922     0.13700
H31         H  0.90567773  0.21344694  0.52842971     0.13700
H32         H  0.90351534  0.21211142  0.47915846     0.13700
H33         H  0.99941637  0.21438321  0.52078321     0.26900
H34         H  0.99740110  0.21237880  0.47899577     0.26900
O35         O  0.22565820  0.21100885  0.26696952    -0.87600
C36         C  0.22534785  0.28408397  0.28703632     0.88500
Mg37       Mg  0.25946622  0.19135241  0.25793823     1.58100
O38         O  0.20343442  0.27224547  0.22622121    -0.87300
O39         O  0.18932774  0.21988417  0.25039901    -0.74600
C40         C  0.32038765  0.26571788  0.17935228     0.93500
O41         O  0.26776514  0.24157376  0.29662540    -0.74400
O42         O  0.32535781  0.24955045  0.19604948    -0.82000
Mg43       Mg  0.22620655  0.23199043  0.30125552     1.58000
C44         C  0.22969159  0.31650602  0.16721334     0.93400
O45         O  0.18533295  0.22320478  0.31144406    -0.80200
H46         H  0.18015832  0.25451758  0.20306053    -0.05600
C47         C  0.27697488  0.29321824  0.23158944     0.88400
O48         O  0.25283721  0.19681462  0.21598828    -0.74700
O49         O  0.21536870  0.26435223  0.28061647    -0.87500
O50         O  0.21836507  0.31870341  0.18809709    -0.80300
C51         C  0.17219093  0.32355238  0.25556930     0.93500
C52         C  0.16371534  0.23296934  0.30927211     0.93400
Mg53       Mg  0.25761158  0.26560733  0.18617048     1.58000
O54         O  0.29843353  0.27449294  0.17653190    -0.80200
O55         O  0.21598900  0.25602323  0.19080039    -0.74500
O56         O  0.16944684  0.30213300  0.26557181    -0.80300
O57         O  0.23819871  0.19823045  0.32378069    -0.82000
O58         O  0.31597235  0.19565876  0.22271279    -0.80300
C59         C  0.19896015  0.26099600  0.20656569     0.87800
O60         O  0.26873520  0.23317723  0.20669495    -0.87500
O61         O  0.25791936  0.28664322  0.22033988    -0.87600
O62         O  0.29409158  0.27786522  0.23725773    -0.74600
Mg63       Mg  0.18189813  0.26133847  0.25846555     1.58000
O64         O  0.18961348  0.32785534  0.23995858    -0.82000
H65         H  0.20453482  0.18527494  0.25013502    -0.05700
O66         O  0.28015639  0.22564537  0.26105687    -0.87300
H67         H  0.30355691  0.24310781  0.28428695    -0.05600
H68         H  0.25422348  0.21064206  0.18076704    -0.05700
C69         C  0.28472973  0.23670455  0.28078398     0.87800
C70         C  0.20647582  0.20447768  0.25588693     0.88400
C71         C  0.25878997  0.21343760  0.20023199     0.88400
H72         H  0.27879262  0.31241843  0.23739067    -0.05700
O73         O  0.23108721  0.30077116  0.27126854    -0.74700
Mg74       Mg  0.30210484  0.23654357  0.22929069     1.58000
H75         H  0.23007258  0.28685060  0.30646738    -0.05700
C76         C  0.25511230  0.18201091  0.32011010     0.93400
O77         O  0.29466747  0.17057112  0.24801912    -0.82000
C78         C  0.31301238  0.17457049  0.23343117     0.93500
O79         O  0.15899863  0.24908648  0.29243968    -0.82000
Mg80       Mg  0.22437774  0.30657966  0.22934209     1.58200
O81         O  0.26595358  0.18006672  0.29899310    -0.80300
O82         O  0.24592820  0.29956632  0.16371247    -0.82000
O83         O  0.76259238  0.24872363  0.70641477    -0.87600
C84         C  0.75200584  0.19502738  0.76034178     0.88500
Mg85       Mg  0.78955827  0.27862865  0.71162745     1.58100
O86         O  0.70240280  0.23771582  0.75626956    -0.87300
O87         O  0.72253604  0.24220015  0.70037612    -0.74600
C88         C  0.76343990  0.32400304  0.82407201     0.93500
O89         O  0.80282875  0.22560527  0.74457885    -0.74400
O90         O  0.78176300  0.32076910  0.80927370    -0.82000
Mg91       Mg  0.77630745  0.21159852  0.71371077     1.58000
C92         C  0.67376464  0.27038154  0.82164903     0.93400
O93         O  0.75335437  0.19302968  0.68163637    -0.80200
H94         H  0.67587914  0.25451074  0.73616353    -0.05600
C95         C  0.75398478  0.25140768  0.81044067     0.88400
O96         O  0.75835723  0.30540288  0.72416150    -0.74700
O97         O  0.74684021  0.20640764  0.74094678    -0.87500
O98         O  0.67662483  0.24859709  0.81228852    -0.80300
C99         C  0.68167182  0.17553165  0.77167902     0.93500
C100        C  0.73334962  0.18010520  0.68057340     0.93400
Mg101      Mg  0.72109432  0.29268543  0.78968177     1.58000
O102        O  0.74286173  0.31239105  0.82111029    -0.80200
O103        O  0.69522172  0.27770816  0.75899236    -0.74500
O104        O  0.69302333  0.17934912  0.75107576    -0.80300
O105        O  0.80792262  0.21684860  0.68578035    -0.82000
O106        O  0.80727897  0.32351952  0.75560686    -0.80300
C107        C  0.69034661  0.25632855  0.75012944     0.87800
O108        O  0.75150063  0.29759303  0.76363270    -0.87500
O109        O  0.73476877  0.25587033  0.79845767    -0.87600
O110        O  0.77471991  0.26170031  0.80523622    -0.74600
Mg111      Mg  0.70951616  0.21102800  0.72727609     1.58000
O112        O  0.68236043  0.19156008  0.78930835    -0.82000
H113        H  0.74302550  0.26720224  0.68057722    -0.05700
O114        O  0.79520210  0.26533783  0.74923981    -0.87300
H115        H  0.82188499  0.24788794  0.76859727    -0.05600
H116        H  0.73325425  0.32439347  0.74525519    -0.05700
C117        C  0.80738768  0.24656637  0.75460697     0.87800
C118        C  0.74294934  0.25321381  0.69508970     0.88400
C119        C  0.74719324  0.30985568  0.74460852     0.88400
H120        H  0.75328742  0.23780308  0.82530104    -0.05700
O121        O  0.74105485  0.19967837  0.78090293    -0.74700
Mg122      Mg  0.78856031  0.29218293  0.77844357     1.58000
H123        H  0.76654704  0.18108024  0.75991340    -0.05700
C124        C  0.82378004  0.23426756  0.68274904     0.93400
O125        O  0.81823331  0.31020409  0.71787451    -0.82000
C126        C  0.82038108  0.32572718  0.73580396     0.93500
O127        O  0.71618545  0.18222063  0.69683177    -0.82000
Mg128      Mg  0.70895855  0.22526181  0.79407404     1.58200
O129        O  0.82142810  0.25517061  0.69391769    -0.80300
O130        O  0.68903727  0.28792521  0.81685122    -0.82000
N131        N  0.49500076  0.03781472  0.24460640    -0.35800
N132        N  0.45602940  0.00047266  0.24873930    -0.56400
N133        N  0.49415573  0.96251700  0.25725960    -0.35800
N134        N  0.53316101  0.99935287  0.25048699    -0.56400
C135        C  0.47499304  0.05105037  0.23665363     0.27700
C136        C  0.51571884  0.05054330  0.23778139     0.27800
C137        C  0.47357008  0.94816961  0.25433886     0.27700
C138        C  0.51431585  0.94747206  0.25482846     0.27700
C139        C  0.44167951  0.02117440  0.24899955     0.36400
C140        C  0.44119448  0.98147499  0.25612133     0.36400
C141        C  0.54796210  0.01974763  0.25121496     0.36400
C142        C  0.54752019  0.97985020  0.25751460     0.36400
C143        C  0.48308569  0.07252825  0.22479905    -0.21100
C144        C  0.50878022  0.07218211  0.22544341    -0.21100
C145        C  0.48072456  0.92369966  0.25016857    -0.21100
C146        C  0.50640557  0.92324842  0.25054507    -0.21100
C147        C  0.41757188  0.01526889  0.25635698    -0.22200
C148        C  0.41727902  0.99010612  0.26092146    -0.22200
C149        C  0.57189135  0.01311533  0.25858226    -0.22200
C150        C  0.57164206  0.98782662  0.26240746    -0.22200
C151        C  0.44965797  0.04503208  0.24121372    -0.17500
C152        C  0.54065092  0.04395994  0.24371249    -0.17500
C153        C  0.53957729  0.95472870  0.25788075    -0.17500
C154        C  0.44850890  0.95620777  0.25695009    -0.17500
H155        H  0.47165736  0.08706686  0.21673988     0.15400
H156        H  0.52097064  0.08641786  0.21792794     0.15400
H157        H  0.46867759  0.90773538  0.24741316     0.15400
H158        H  0.51790560  0.90685608  0.24819056     0.15400
H159        H  0.40179944  0.02774736  0.25806726     0.13700
H160        H  0.40122049  0.97934426  0.26680052     0.13700
H161        H  0.58797420  0.02516116  0.26066230     0.13700
H162        H  0.58746470  0.97658257  0.26794463     0.13700
H163        H  0.49454901  0.02260368  0.25655835     0.26900
H164        H  0.49431276  0.98082687  0.26347283     0.26900
O165        O  0.77107202  0.71452379  0.27201818    -0.87600
C166        C  0.78655725  0.78873834  0.26650124     0.88500
Mg167      Mg  0.76176984  0.69198235  0.24017788     1.58100
O168        O  0.72771956  0.77490562  0.29236862    -0.87300
O169        O  0.75554017  0.72504622  0.30834079    -0.74600
C170        C  0.67474572  0.75714215  0.17963317     0.93500
O171        O  0.79678730  0.74366921  0.22641670    -0.74400
O172        O  0.69223928  0.74172174  0.17499485    -0.82000
Mg173      Mg  0.80385383  0.73750303  0.26833185     1.58000
C174        C  0.66526181  0.81458162  0.26622025     0.93400
O175        O  0.81622459  0.73224071  0.30903028    -0.80200
H176        H  0.70681080  0.75828641  0.31842292    -0.05600
C177        C  0.72781663  0.79093847  0.21758757     0.88400
O178        O  0.71985123  0.69552423  0.24870482    -0.74700
O179        O  0.78185171  0.76938177  0.27802937    -0.87500
O180        O  0.68642953  0.81805802  0.27663281    -0.80300
C181        C  0.75464853  0.82952427  0.31961258     0.93500
C182        C  0.81421133  0.74251452  0.33040587     0.93400
Mg183      Mg  0.68510265  0.76236559  0.24157899     1.58000
O184        O  0.67238622  0.76734228  0.20099300    -0.80200
O185        O  0.69237608  0.75634684  0.28344409    -0.74500
O186        O  0.76648108  0.80910219  0.32281978    -0.80300
O187        O  0.82750926  0.70406484  0.25825297    -0.82000
O188        O  0.72285793  0.69056551  0.18633139    -0.80300
C189        C  0.70889319  0.76330852  0.29898520     0.87800
O190        O  0.70718604  0.73031704  0.23171447    -0.87500
O191        O  0.71805693  0.78517399  0.23768339    -0.87600
O192        O  0.73352738  0.77468069  0.20134389    -0.74600
Mg193      Mg  0.76148930  0.76726947  0.31281339     1.58000
O194        O  0.73843974  0.83189297  0.30239518    -0.82000
H195        H  0.75664624  0.68947620  0.29557156    -0.05700
O196        O  0.76156477  0.72499440  0.21729518    -0.87300
H197        H  0.78248616  0.74180481  0.19137092    -0.05600
H198        H  0.68378450  0.70709810  0.24916352    -0.05700
C199        C  0.78035467  0.73670556  0.21078352     0.87800
C200        C  0.76120260  0.70877874  0.29207226     0.88400
C201        C  0.70269030  0.71084257  0.24313366     0.88400
H202        H  0.73228128  0.81025498  0.21405123    -0.05700
O203        O  0.76954073  0.80409883  0.26066692    -0.74700
Mg204      Mg  0.72767439  0.73250994  0.19688543     1.58000
H205        H  0.80551866  0.79228353  0.26052500    -0.05700
C206        C  0.82437511  0.68581155  0.24342199     0.93400
O207        O  0.75158101  0.66859023  0.20676163    -0.82000
C208        C  0.73549037  0.67060194  0.18937696     0.93500
O209        O  0.79694436  0.75819853  0.33497163    -0.82000
Mg210      Mg  0.72774028  0.80787698  0.26930529     1.58200
O211        O  0.80335125  0.68194163  0.23287327    -0.80300
O212        O  0.66156130  0.79624338  0.25160946    -0.82000
N213        N  0.96079331  0.70622730  0.50036483    -0.35800
N214        N  0.99825231  0.71045600  0.46087396    -0.56400
N215        N  0.03728914  0.71249980  0.49843011    -0.35800
N216        N  0.00016579  0.71031174  0.53779616    -0.56400
C217        C  0.94604690  0.71142127  0.48046931     0.27700
C218        C  0.94717442  0.71089420  0.52118754     0.27800
C219        C  0.05023189  0.71916953  0.47778079     0.27700
C220        C  0.05115673  0.71935257  0.51843682     0.27700
C221        C  0.97778018  0.70663859  0.44656738     0.36400
C222        C  0.01831752  0.70895353  0.44555410     0.36400
C223        C  0.98065210  0.70525817  0.55297474     0.36400
C224        C  0.02098821  0.70832580  0.55193023     0.36400
C225        C  0.92261361  0.71868245  0.48882622    -0.21100
C226        C  0.92339994  0.71855197  0.51441964    -0.21100
C227        C  0.07254573  0.73033576  0.48476141    -0.21100
C228        C  0.07310549  0.73048302  0.51039901    -0.21100
C229        C  0.98488661  0.70278517  0.42196352    -0.22200
C230        C  0.01057529  0.70405542  0.42136217    -0.22200
C231        C  0.98910902  0.69994828  0.57684801    -0.22200
C232        C  0.01470616  0.70182250  0.57616821    -0.22200
C233        C  0.95281462  0.70934108  0.45493681    -0.17500
C234        C  0.95529268  0.70797330  0.54619642    -0.17500
C235        C  0.04531297  0.71441233  0.54372174    -0.17500
C236        C  0.04323982  0.71415215  0.45280103    -0.17500
H237        H  0.90652868  0.72374013  0.47771198     0.15400
H238        H  0.90812003  0.72360848  0.52663691     0.15400
H239        H  0.08705395  0.73747215  0.47263037     0.15400
H240        H  0.08812674  0.73771223  0.52182826     0.15400
H241        H  0.97281315  0.69994208  0.40600779     0.13700
H242        H  0.02215678  0.70238602  0.40488281     0.13700
H243        H  0.97794842  0.69570275  0.59315663     0.13700
H244        H  0.02720188  0.69929746  0.59184893     0.13700
H245        H  0.97838146  0.69809527  0.49977446     0.26900
H246        H  0.02148791  0.70125124  0.49880638     0.26900
O247        O  0.22922579  0.71496165  0.72833950    -0.87600
C248        C  0.21000540  0.78849212  0.73032202     0.88500
Mg249      Mg  0.23824915  0.69428251  0.76171423     1.58100
O250        O  0.27033693  0.77674287  0.70716224    -0.87300
O251        O  0.24558920  0.72483755  0.69221409    -0.74600
C252        C  0.32137644  0.76423846  0.82229189     0.93500
O253        O  0.20035785  0.74469976  0.77142718    -0.74400
O254        O  0.30371500  0.74887603  0.82666912    -0.82000
Mg255      Mg  0.19513618  0.73638349  0.72954683     1.58000
C256        C  0.33000913  0.81946952  0.73332369     0.93400
O257        O  0.18415050  0.72907781  0.68826747    -0.80200
H258        H  0.29280789  0.75977949  0.68271842    -0.05600
C259        C  0.26733483  0.79585105  0.78133207     0.88400
O260        O  0.28032994  0.69911548  0.75473210    -0.74700
O261        O  0.21601922  0.76902118  0.71960800    -0.87500
O262        O  0.30904763  0.82241107  0.72237235    -0.80300
C263        C  0.24154787  0.82864450  0.67670158     0.93500
C264        C  0.18648584  0.73969601  0.66704129     0.93400
Mg265      Mg  0.31146991  0.76775038  0.76000475     1.58000
O266        O  0.32357178  0.77471030  0.80100314    -0.80200
O267        O  0.30576468  0.75969227  0.71830492    -0.74500
O268        O  0.23161587  0.80721820  0.67391546    -0.80300
O269        O  0.17263907  0.70223768  0.74035038    -0.82000
O270        O  0.27406997  0.69744093  0.81728436    -0.80300
C271        C  0.28976829  0.76554000  0.70182258     0.87800
O272        O  0.29052791  0.73525032  0.77053149    -0.87500
O273        O  0.27767546  0.78958948  0.76170591    -0.87600
O274        O  0.26189480  0.78007849  0.79812404    -0.74600
Mg275      Mg  0.23790328  0.76653408  0.68589653     1.58000
O276        O  0.25672928  0.83329410  0.69443811    -0.82000
H277        H  0.24579347  0.68978983  0.70639511    -0.05700
O278        O  0.23609156  0.72853100  0.78294486    -0.87300
H279        H  0.21327660  0.74554604  0.80705249    -0.05600
H280        H  0.31582619  0.71239588  0.75545955    -0.05700
C281        C  0.21648930  0.73955483  0.78804874     0.87800
C282        C  0.24015940  0.70894969  0.70893242     0.88400
C283        C  0.29648747  0.71548804  0.76036720     0.88400
H284        H  0.26219396  0.81513297  0.78398911    -0.05700
O285        O  0.22604079  0.80489754  0.73622485    -0.74700
Mg286      Mg  0.26883248  0.73830756  0.80439063     1.58000
H287        H  0.19070234  0.79124482  0.73555995    -0.05700
C288        C  0.17609389  0.68528373  0.75656387     0.93400
O289        O  0.24790488  0.67247588  0.79677191    -0.82000
C290        C  0.26279469  0.67660567  0.81484721     0.93500
O291        O  0.20366722  0.75561936  0.66308776    -0.82000
Mg292      Mg  0.26787116  0.81070778  0.72882670     1.58200
O293        O  0.19694223  0.68315737  0.76792816    -0.80300
O294        O  0.33353593  0.80178706  0.74876163    -0.82000
N295        N  0.50229217  0.96212470  0.74224267    -0.35800
N296        N  0.46538617  0.00170615  0.75009845    -0.56400
N297        N  0.50558119  0.03741448  0.75527782    -0.35800
N298        N  0.54231938  0.99724863  0.74997239    -0.56400
C299        C  0.48116348  0.94879995  0.74588993     0.27700
C300        C  0.52178914  0.94641565  0.74568109     0.27800
C301        C  0.48591398  0.05158657  0.76251846     0.27700
C302        C  0.52667108  0.04916743  0.76279672     0.27700
C303        C  0.44999105  0.98309369  0.74284631     0.36400
C304        C  0.45168777  0.02286001  0.74971905     0.36400
C305        C  0.55597645  0.97741116  0.74246101     0.36400
C306        C  0.55780196  0.01713553  0.74952580     0.36400
C307        C  0.48727372  0.92436044  0.75161741    -0.21100
C308        C  0.51289819  0.92289905  0.75164777    -0.21100
C309        C  0.49465430  0.07274253  0.77452889    -0.21100
C310        C  0.52034565  0.07119990  0.77474151    -0.21100
C311        C  0.42635359  0.99240190  0.73799272    -0.22200
C312        C  0.42741251  0.01760811  0.74239957    -0.22200
C313        C  0.58022864  0.98474676  0.73719202    -0.22200
C314        C  0.58141601  0.00988589  0.74176073    -0.22200
C315        C  0.45651655  0.95760318  0.74244190    -0.17500
C316        C  0.54732638  0.95249386  0.74238607    -0.17500
C317        C  0.55147070  0.04136331  0.75775705    -0.17500
C318        C  0.46038184  0.04651692  0.75751166    -0.17500
H319        H  0.47456801  0.90909846  0.75527382     0.15400
H320        H  0.52372387  0.90631297  0.75541087     0.15400
H321        H  0.48367077  0.08781738  0.78221540     0.15400
H322        H  0.53295388  0.08490171  0.78256420     0.15400
H323        H  0.40995770  0.98204051  0.73231886     0.13700
H324        H  0.41201124  0.03053675  0.74069579     0.13700
H325        H  0.59557351  0.97314610  0.73107729     0.13700
H326        H  0.59787515  0.02145224  0.73986051     0.13700
H327        H  0.50319157  0.98004175  0.73494941     0.26900
H328        H  0.50483195  0.02206855  0.74350582     0.26900
N329        N  0.24937887  0.53931124  0.99627031    -0.35800
N330        N  0.24248985  0.50023430  0.03386783    -0.56400
N331        N  0.23439954  0.46387747  0.99440521    -0.35800
N332        N  0.24396467  0.50269518  0.95689425    -0.56400
C333        C  0.25604378  0.55200320  0.01704122     0.27700
C334        C  0.25599139  0.55338819  0.97635742     0.27800
C335        C  0.23615720  0.44854043  0.01444789     0.27700
C336        C  0.23760151  0.44974951  0.97368350     0.27700
C337        C  0.24405244  0.52020331  0.04920168     0.36400
C338        C  0.23581611  0.48059437  0.04825421     0.36400
C339        C  0.24477031  0.52342488  0.94254521     0.36400
C340        C  0.23787886  0.48364355  0.94156741     0.36400
C341        C  0.26659623  0.57462125  0.01022797    -0.21100
C342        C  0.26655115  0.57548908  0.98459186    -0.21100
C343        C  0.23980115  0.42430361  0.00629267    -0.21100
C344        C  0.24089632  0.42508915  0.98065896    -0.21100
C345        C  0.23857766  0.51313250  0.07350164    -0.22200
C346        C  0.23337416  0.48808946  0.07290096    -0.22200
C347        C  0.23929600  0.51747684  0.91796991    -0.22200
C348        C  0.23494616  0.49229285  0.91734450    -0.22200
C349        C  0.25180937  0.54442156  0.04200566    -0.17500
C350        C  0.25182010  0.54740197  0.95096865    -0.17500
C351        C  0.23700803  0.45825346  0.94858677    -0.17500
C352        C  0.23400573  0.45562345  0.03988947    -0.17500
H353        H  0.27346501  0.58914936  0.02244537     0.15400
H354        H  0.27343474  0.59074538  0.97331378     0.15400
H355        H  0.24169795  0.40771688  0.01759726     0.15400
H356        H  0.24379642  0.40921689  0.96854879     0.15400
H357        H  0.23869223  0.52472566  0.09003676     0.13700
H358        H  0.22881305  0.47662925  0.08888751     0.13700
H359        H  0.23885773  0.52991293  0.90207543     0.13700
H360        H  0.23046653  0.48151112  0.90085953     0.13700
H361        H  0.23865887  0.52328953  0.99580938     0.26900
H362        H  0.22908203  0.48242083  0.99471902     0.26900
N363        N  0.75312593  0.46134232  0.00292969    -0.35800
N364        N  0.75173132  0.50152629  0.96677662    -0.56400
N365        N  0.74536755  0.53715320  0.00728366    -0.35800
N366        N  0.74423400  0.49660597  0.04333045    -0.56400
C367        C  0.75244915  0.44805438  0.98146843     0.27700
C368        C  0.74836345  0.44539136  0.02189729     0.27800
C369        C  0.73995371  0.55169505  0.98737125     0.27700
C370        C  0.73726688  0.54924991  0.02790804     0.27700
C371        C  0.75899957  0.48292338  0.95141780     0.36400
C372        C  0.75402614  0.52289172  0.95368215     0.36400
C373        C  0.74889379  0.47597206  0.05701002     0.36400
C374        C  0.74538205  0.51607758  0.05929927     0.36400
C375        C  0.74745205  0.42329314  0.98689836    -0.21100
C376        C  0.74507174  0.42158247  0.01237847    -0.21100
C377        C  0.72845339  0.57337071  0.99547016    -0.21100
C378        C  0.72676020  0.57182450  0.02106174    -0.21100
C379        C  0.76589605  0.49248916  0.92839927    -0.22200
C380        C  0.76273880  0.51783762  0.92982422    -0.22200
C381        C  0.75245971  0.48232252  0.08184920    -0.22200
C382        C  0.75043970  0.50773425  0.08326225    -0.22200
C383        C  0.75755323  0.45730532  0.95724019    -0.17500
C384        C  0.74897880  0.45135986  0.04764156    -0.17500
C385        C  0.74047640  0.54112329  0.05283095    -0.17500
C386        C  0.74638168  0.54658790  0.96226273    -0.17500
H387        H  0.74611219  0.40790691  0.97390587     0.15400
H388        H  0.74175728  0.40457616  0.02267505     0.15400
H389        H  0.72214060  0.58881617  0.98413762     0.15400
H390        H  0.71887618  0.58582577  0.03327211     0.15400
H391        H  0.77208591  0.48222412  0.91214506     0.13700
H392        H  0.76602307  0.53098613  0.91486153     0.13700
H393        H  0.75612953  0.46997212  0.09738167     0.13700
H394        H  0.75230230  0.51875433  0.10008067     0.13700
H395        H  0.75938138  0.47951570  0.00479530     0.26900
H396        H  0.75655743  0.52137684  0.00713046     0.26900
O397        O  0.73240619  0.78876646  0.77200556    -0.87600
C398        C  0.71354362  0.71536574  0.77380061     0.88500
Mg399      Mg  0.74081667  0.80786009  0.73800502     1.58100
O400        O  0.77494362  0.72834720  0.79383537    -0.87300
O401        O  0.75042621  0.78089578  0.80774503    -0.74600
C402        C  0.82143860  0.73531497  0.67696328     0.83500
O403        O  0.70274333  0.75713076  0.73078350    -0.74400
O404        O  0.80432847  0.75132874  0.67299670    -0.82000
Mg405      Mg  0.69847779  0.76717745  0.77236327     1.58000
C406        C  0.83311943  0.68272610  0.76736736     0.93400
O407        O  0.68852969  0.77627349  0.81332564    -0.80200
H408        H  0.79873704  0.74542360  0.81696349    -0.05600
C409        C  0.76888951  0.70591071  0.72073552     0.88400
O410        O  0.78302916  0.80258998  0.74419117    -0.74700
O411        O  0.71996504  0.73533686  0.78327055    -0.87500
O412        O  0.81242741  0.68128807  0.77911514    -0.80300
C413        C  0.74771096  0.67824744  0.82821206     0.93500
C414        C  0.69187585  0.76677054  0.83488733     0.93400
Mg415      Mg  0.81446256  0.73370224  0.73942361     1.58000
O416        O  0.82410218  0.72489221  0.69821756    -0.80200
O417        O  0.81072509  0.74344328  0.78106810    -0.74500
O418        O  0.73765159  0.69963287  0.83048910    -0.80300
O419        O  0.67542502  0.80057475  0.76071152    -0.82000
O420        O  0.77613733  0.80366929  0.68158954    -0.80300
C421        C  0.79492233  0.73903552  0.79820033     0.87800
O422        O  0.79325868  0.76624757  0.72882069    -0.87500
O423        O  0.78010766  0.71262949  0.73974259    -0.87600
O424        O  0.76308866  0.72122460  0.70361699    -0.74600
Mg425      Mg  0.74322294  0.73958859  0.81597336     1.58000
O426        O  0.76186121  0.67288230  0.80986504    -0.82000
H427        H  0.74917493  0.81528607  0.79213458    -0.05700
O428        O  0.73806363  0.77316982  0.71778192    -0.87300
H429        H  0.71481420  0.75501929  0.69491969    -0.05600
H430        H  0.81854709  0.78943367  0.74345273    -0.05700
C431        C  0.71842306  0.76179076  0.71358908     0.87800
C432        C  0.74387119  0.79590970  0.79068544     0.88400
C433        C  0.79918985  0.78617521  0.73871079     0.88400
H434        H  0.76334431  0.68663316  0.71890480    -0.05700
O435        O  0.72935588  0.69877497  0.76798548    -0.74700
Mg436      Mg  0.77035336  0.76281316  0.69578513     1.58000
H437        H  0.69404285  0.71231565  0.76952983    -0.05700
C438        C  0.67876358  0.81750746  0.74443505     0.93400
O439        O  0.74973595  0.82795259  0.70243727    -0.82000
C440        C  0.76434094  0.82420190  0.68409668     0.93500
O441        O  0.70959546  0.75150163  0.83911707    -0.82000
Mg442      Mg  0.77138632  0.69335128  0.77394608     1.58200
O443        O  0.69942141  0.81963648  0.73270992    -0.80300
O444        O  0.83697453  0.69940366  0.75088228    -0.82000
N445        N  0.75196270  0.96219615  0.50317211    -0.35800
N446        N  0.74882479  0.00102596  0.46530079    -0.56400
N447        N  0.74093667  0.03803672  0.50447557    -0.35800
N448        N  0.74689447  0.99966641  0.54237312    -0.56400
C449        C  0.75987724  0.94960538  0.48272953     0.27700
C450        C  0.75900787  0.94887960  0.52345237     0.27800
C451        C  0.74374814  0.05311735  0.48440340     0.27700
C452        C  0.74272988  0.05244176  0.52517457     0.27700
C453        C  0.74840437  0.98078859  0.45025912     0.36400
C454        C  0.74251247  0.02073832  0.45090498     0.36400
C455        C  0.74622684  0.97889613  0.55664268     0.36400
C456        C  0.74034036  0.01887056  0.55736857     0.36400
C457        C  0.77190391  0.92797386  0.49011481    -0.21100
C458        C  0.77134797  0.92750962  0.51578542    -0.21100
C459        C  0.74695828  0.07746801  0.49245731    -0.21100
C460        C  0.74631601  0.07703944  0.51813232    -0.21100
C461        C  0.74191096  0.98772463  0.42617906    -0.22200
C462        C  0.73832174  0.01303614  0.42656472    -0.22200
C463        C  0.73928743  0.98496720  0.58083940    -0.22200
C464        C  0.73567608  0.01028367  0.58131908    -0.22200
C465        C  0.75546544  0.95644448  0.45756313    -0.17500
C466        C  0.75363461  0.95485649  0.54865720    -0.17500
C467        C  0.74012474  0.04424974  0.55021704    -0.17500
C468        C  0.74200758  0.04580463  0.45901556    -0.17500
H469        H  0.78013059  0.91389512  0.47822549     0.15400
H470        H  0.77906976  0.91299959  0.52748104     0.15400
H471        H  0.74929883  0.09392764  0.48103447     0.15400
H472        H  0.74812284  0.09309017  0.53022697     0.15400
H473        H  0.74021799  0.97585556  0.40993208     0.13700
H474        H  0.73338503  0.02448400  0.41068783     0.13700
H475        H  0.73740298  0.97252297  0.59662252     0.13700
H476        H  0.73047658  0.02116104  0.59752032     0.13700
H477        H  0.74007026  0.97746458  0.50320737     0.26900
H478        H  0.73549621  0.01950923  0.50399139     0.26900
O479        O  0.73200191  0.28183517  0.22378585    -0.87600
C480        C  0.73287552  0.20807576  0.20684840     0.88500
Mg481      Mg  0.76476585  0.30287348  0.23200739     1.58100
O482        O  0.71202602  0.22202650  0.26762019    -0.87300
O483        O  0.69646643  0.27328432  0.24194497    -0.74600
C484        C  0.82776309  0.23450382  0.31453398     0.93500
O485        O  0.77468048  0.25132656  0.19559537    -0.74400
O486        O  0.83200906  0.25079201  0.29771656    -0.82000
Mg487      Mg  0.73276715  0.25951534  0.19043439     1.58000
C488        C  0.73951558  0.18004980  0.32747337     0.93400
O489        O  0.69147990  0.26710198  0.18048644    -0.80200
H490        H  0.68772341  0.23857214  0.29057256    -0.05600
C491        C  0.78587945  0.20283371  0.26251864     0.88400
O492        O  0.75804210  0.29878557  0.27416010    -0.74700
O493        O  0.72284550  0.22794166  0.21269884    -0.87500
O494        O  0.72787095  0.17729937  0.30687671    -0.80300
C495        C  0.67989141  0.17000524  0.24135136     0.93500
C496        C  0.66992873  0.25779528  0.18453796     0.93400
Mg497      Mg  0.76546478  0.23113303  0.30687813     1.58000
O498        O  0.80649259  0.22401207  0.31654824    -0.80200
O499        O  0.72355064  0.23902423  0.30290130    -0.74500
O500        O  0.67745209  0.19107438  0.23065512    -0.80300
O501        O  0.74346458  0.29263139  0.16642931    -0.82000
O502        O  0.81974496  0.30270832  0.26828934    -0.80300
C503        C  0.70684807  0.23309289  0.28716776     0.87800
O504        O  0.77490442  0.26335358  0.28508491    -0.87500
O505        O  0.76640205  0.20895585  0.27330176    -0.87600
O506        O  0.80256763  0.21871263  0.25678925    -0.74600
Mg507      Mg  0.68991372  0.23162588  0.23567329     1.58000
O508        O  0.69783318  0.16556364  0.25633839    -0.82000
H509        H  0.71083307  0.30815124  0.23950076    -0.05700
O510        O  0.78671835  0.26924461  0.23042797    -0.87300
H511        H  0.81047532  0.25115586  0.20806943    -0.05600
H512        H  0.75921727  0.28632445  0.30990713    -0.05700
C513        C  0.79151777  0.25730442  0.21125171     0.87800
C514        C  0.71298910  0.28867510  0.23487706     0.88400
C515        C  0.76417752  0.28294202  0.29063457     0.88400
H516        H  0.78856900  0.18355185  0.25738395    -0.05700
O517        O  0.73902266  0.19204344  0.22312107    -0.74700
Mg518      Mg  0.80862529  0.26082205  0.26315576     1.58000
H519        H  0.73729218  0.20463002  0.18745441    -0.05700
C520        C  0.75940377  0.30987384  0.16984430     0.93400
O521        O  0.79867973  0.32592586  0.24116436    -0.82000
C522        C  0.81623885  0.32338403  0.25691079     0.93500
O523        O  0.66618781  0.24239030  0.20224243    -0.82000
Mg524      Mg  0.73305297  0.18777447  0.26531363     1.58200
O525        O  0.77061532  0.31267458  0.19066637    -0.80300
O526        O  0.75546512  0.19740103  0.33041589    -0.82000
N527        N  0.99665324  0.53918518  0.24791679    -0.35800
N528        N  0.03430985  0.50126236  0.25692764    -0.56400
N529        N  0.99444791  0.46398074  0.26206338    -0.35800
N530        N  0.95670458  0.50255813  0.25610584    -0.56400
C531        C  0.01734466  0.55357748  0.25009310     0.27700
C532        C  0.97664910  0.55436983  0.25041546     0.27800
C533        C  0.01454844  0.44940970  0.26676608     0.27700
C534        C  0.97363926  0.45008308  0.26596715     0.27700
C535        C  0.04962264  0.52020127  0.25033258     0.36400
C536        C  0.04861804  0.48057279  0.25797024     0.36400
C537        C  0.94263215  0.52239364  0.24955771     0.36400
C538        C  0.94136736  0.48251803  0.25608706     0.36400
C539        C  0.01040370  0.57817816  0.25357452    -0.21100
C540        C  0.98476550  0.57866984  0.25390400    -0.21100
C541        C  0.00639690  0.42588377  0.27369305    -0.21100
C542        C  0.98067899  0.42630449  0.27318965    -0.21100
C543        C  0.07386786  0.51165730  0.24767240    -0.22200
C544        C  0.07324962  0.48658879  0.25247988    -0.22200
C545        C  0.91812670  0.51501812  0.24568358    -0.22200
C546        C  0.91732987  0.48977695  0.24976452    -0.22200
C547        C  0.04233541  0.54535315  0.24794221    -0.17500
C548        C  0.95125175  0.54727704  0.24827577    -0.17500
C549        C  0.94851743  0.45779650  0.26204855    -0.17500
C550        C  0.04003931  0.45625138  0.26378473    -0.17500
H551        H  0.02254115  0.59417046  0.25566301     0.15400
H552        H  0.97339158  0.59515668  0.25624344     0.15400
H553        H  0.01778944  0.40990597  0.27833949     0.15400
H554        H  0.96856509  0.41070912  0.27738160     0.15400
H555        H  0.09030524  0.52236512  0.24281908     0.13700
H556        H  0.08916371  0.47419712  0.25181060     0.13700
H557        H  0.90244617  0.52661837  0.24048983     0.13700
H558        H  0.90090165  0.47811254  0.24824349     0.13700
H559        H  0.99618673  0.52088344  0.24214573     0.26900
H560        H  0.99499048  0.48149960  0.25473380     0.26900
O561        O  0.27634453  0.78040442  0.23273528    -0.87600
C562        C  0.29501449  0.70709410  0.23715279     0.88500
Mg563      Mg  0.26715305  0.80218556  0.26500352     1.58100
O564        O  0.23469539  0.71945457  0.21408775    -0.87300
O565        O  0.26024485  0.77006616  0.19670772    -0.74600
C566        C  0.18549164  0.73369829  0.32955069     0.93500
O567        O  0.30552661  0.75275101  0.27704530    -0.74400
O568        O  0.20273400  0.74972509  0.33328855    -0.82000
Mg569      Mg  0.31054400  0.75937384  0.23488506     1.58000
C570        C  0.17405255  0.67828448  0.24027323     0.93400
O571        O  0.32111092  0.76503164  0.19354120    -0.80200
H572        H  0.21226901  0.73628561  0.18950410    -0.05600
C573        C  0.23839944  0.70183497  0.28841294     0.88400
O574        O  0.22518128  0.79690432  0.25845495    -0.74700
O575        O  0.28936656  0.72644314  0.22602482    -0.87500
O576        O  0.19524731  0.67519335  0.22983478    -0.80300
C577        C  0.26184850  0.66618716  0.18425632     0.93500
C578        C  0.31872967  0.75388661  0.17261627     0.93400
Mg579      Mg  0.19373727  0.72929868  0.26702689     1.58000
O580        O  0.18292493  0.72294105  0.30842919    -0.80200
O581        O  0.19925427  0.73666167  0.22508809    -0.74500
O582        O  0.27330525  0.68686009  0.18151795    -0.80300
O583        O  0.33317419  0.79427497  0.24427069    -0.82000
O584        O  0.23188469  0.80168992  0.32109904    -0.80300
C585        C  0.21530539  0.73071003  0.20865929     0.87800
O586        O  0.21497873  0.76181189  0.27646374    -0.87500
O587        O  0.22751062  0.70747056  0.26886770    -0.87600
O588        O  0.24416912  0.71809328  0.30466291    -0.74600
Mg589      Mg  0.26733192  0.72811405  0.19222627     1.58000
O590        O  0.24630718  0.66295360  0.20193724    -0.82000
H591        H  0.26087299  0.80548482  0.20992196    -0.05700
O592        O  0.26962425  0.76906878  0.28780024    -0.87300
H593        H  0.29260852  0.75343613  0.31267041    -0.05600
H594        H  0.18964778  0.78392097  0.26041494    -0.05700
C595        C  0.28934421  0.75850777  0.29341119     0.87800
C596        C  0.26590716  0.78624433  0.21303316     0.88400
C597        C  0.20902001  0.78102248  0.26530009     0.88400
H598        H  0.24373360  0.68266463  0.29146185    -0.05700
O599        O  0.27867085  0.69103428  0.24323630    -0.74700
Mg600      Mg  0.23718712  0.76005171  0.30998622     1.58000
H601        H  0.31425881  0.70408837  0.24246127    -0.05700
C602        C  0.32904865  0.81180382  0.25974665     0.93400
O603        O  0.25753425  0.82538197  0.29863293    -0.82000
C604        C  0.24285441  0.82247949  0.31704616     0.93500
O605        O  0.30161186  0.73780416  0.16904698    -0.82000
Mg606      Mg  0.23656729  0.68591801  0.23617215     1.58200
O607        O  0.30802961  0.81381721  0.27073313    -0.80300
O608        O  0.17048139  0.69546610  0.25627535    -0.82000
N609        N  0.26050819  0.03918498  0.49345428    -0.35800
N610        N  0.25418627  0.00161964  0.53240153    -0.56400
N611        N  0.25298148  0.96302618  0.49445147    -0.35800
N612        N  0.25643751  0.00099639  0.45547246    -0.56400
C613        C  0.25580762  0.05390607  0.51341235     0.27700
C614        C  0.25826825  0.05346397  0.47273666     0.27800
C615        C  0.24627671  0.94972884  0.51487274     0.27700
C616        C  0.24608587  0.94967444  0.47413281     0.27700
C617        C  0.25886436  0.02170028  0.54690529     0.36400
C618        C  0.25586313  0.98144688  0.54741905     0.36400
C619        C  0.26362123  0.02021907  0.44084154     0.36400
C620        C  0.25809607  0.98029213  0.44124851     0.36400
C621        C  0.25072998  0.07790706  0.50528043    -0.21100
C622        C  0.25230749  0.07762996  0.47962138    -0.21100
C623        C  0.23535927  0.92750816  0.50743645    -0.21100
C624        C  0.23516503  0.92750712  0.48175782    -0.21100
C625        C  0.26332757  0.01427036  0.57128583    -0.22200
C626        C  0.26149614  0.98876166  0.57159713    -0.22200
C627        C  0.26977106  0.01172040  0.41720066    -0.22200
C628        C  0.26630844  0.98639659  0.41746869    -0.22200
C629        C  0.25770112  0.04673589  0.53879651    -0.17500
C630        C  0.26269955  0.04552360  0.44790519    -0.17500
C631        C  0.25064495  0.95622632  0.44891042    -0.17500
C632        C  0.25038652  0.95674263  0.54004653    -0.17500
H633        H  0.24660340  0.09403968  0.51667212     0.15400
H634        H  0.24956011  0.09347135  0.46744015     0.15400
H635        H  0.22819705  0.91281762  0.51928065     0.15400
H636        H  0.22790636  0.91276050  0.47003465     0.15400
H637        H  0.26722381  0.02602126  0.58724259     0.13700
H638        H  0.26367631  0.97698376  0.58784706     0.13700
H639        H  0.27572264  0.02267344  0.40130952     0.13700
H640        H  0.26916471  0.97394457  0.40183637     0.13700
H641        H  0.26767744  0.02122891  0.49409157     0.26900
H642        H  0.26395222  0.97900435  0.49439598     0.26900
O643        O  0.27308746  0.25925679  0.78787394    -0.87600
C644        C  0.26097158  0.31114605  0.73267002     0.88500
Mg645      Mg  0.29788640  0.22790185  0.78384256     1.58100
O646        O  0.21137131  0.26877735  0.74150546    -0.87300
O647        O  0.23384447  0.26664355  0.79658216    -0.74600
C648        C  0.26659203  0.17851497  0.67348808     0.93500
O649        O  0.31187176  0.27764489  0.74608869    -0.74400
O650        O  0.28506072  0.17986707  0.68849587    -0.82000
Mg651      Mg  0.28812537  0.29516272  0.77727873     1.58000
C652        C  0.17901129  0.23629230  0.67763941     0.93400
O653        O  0.26854931  0.31742886  0.80847143    -0.80200
H654        H  0.18514939  0.25325509  0.76306461    -0.05600
C655        C  0.26063581  0.25151056  0.68592179     0.88400
O656        O  0.26490890  0.20206738  0.77384894    -0.74700
O657        O  0.25688253  0.30014587  0.75249816    -0.87500
O658        O  0.18217587  0.25746451  0.68804159    -0.80300
C659        C  0.18902398  0.32988740  0.72603553     0.93500
C660        C  0.24810446  0.32904410  0.81193013     0.93400
Mg661      Mg  0.22668065  0.21254131  0.70826520     1.58000
O662        O  0.24712169  0.19187400  0.67647732    -0.80200
O663        O  0.20237756  0.22905654  0.73959306    -0.74500
O664        O  0.20219272  0.32768920  0.74573892    -0.80300
O665        O  0.32075405  0.29011320  0.80369595    -0.82000
O666        O  0.31335595  0.17813987  0.74302398    -0.80300
C667        C  0.19889346  0.25070543  0.74849766     0.87800
O668        O  0.25756798  0.20666757  0.73393621    -0.87500
O669        O  0.24155092  0.24863106  0.69864214    -0.87600
O670        O  0.28073052  0.23967560  0.69051275    -0.74600
Mg671      Mg  0.22022290  0.29647123  0.76904114     1.58000
O672        O  0.18961846  0.31340144  0.70884899    -0.82000
H673        H  0.25560152  0.24298457  0.81652731    -0.05700
O674        O  0.30344250  0.23774181  0.74525434    -0.87300
H675        H  0.32915836  0.25312735  0.72301845    -0.05600
H676        H  0.23829941  0.18268462  0.75503485    -0.05700
C677        C  0.31557154  0.25582737  0.73770554     0.87800
C678        C  0.25448659  0.25594409  0.80112423     0.88400
C679        C  0.25304329  0.19642234  0.75408751     0.88400
H680        H  0.26035424  0.26471496  0.67069059    -0.05700
O681        O  0.24896959  0.30593465  0.71290230    -0.74700
Mg682      Mg  0.29452501  0.20938518  0.71811921     1.58000
H683        H  0.27550510  0.32512183  0.73199249    -0.05700
C684        C  0.33519664  0.27194639  0.80857190     0.93400
O685        O  0.32428645  0.19510101  0.77947709    -0.82000
C686        C  0.32606321  0.17778006  0.76334490     0.93500
O687        O  0.22899594  0.32557436  0.79831489    -0.82000
Mg688      Mg  0.21612266  0.28001619  0.70317531     1.58200
O689        O  0.33135583  0.25038230  0.79934696    -0.80300
O690        O  0.19422305  0.21839301  0.68117033    -0.82000
N691        N  0.00466571  0.46202354  0.74857769    -0.35800
N692        N  0.96637774  0.49940048  0.75689316    -0.56400
N693        N  0.00512445  0.53739639  0.76305213    -0.35800
N694        N  0.04325632  0.50061832  0.75175813    -0.56400
C695        C  0.98402375  0.44885166  0.74206544     0.27700
C696        C  0.02486272  0.44930147  0.74025822     0.27800
C697        C  0.98433091  0.55167176  0.76170387     0.27700
C698        C  0.02498261  0.55234584  0.75828232     0.27700
C699        C  0.95196934  0.47867581  0.75769171     0.36400
C700        C  0.95240078  0.51818075  0.76628254     0.36400
C701        C  0.05794121  0.48015068  0.75160422     0.36400
C702        C  0.05812666  0.51996712  0.75822548     0.36400
C703        C  0.99127507  0.42737497  0.72964406    -0.21100
C704        C  0.01700332  0.42760032  0.72861679    -0.21100
C705        C  0.99107884  0.57598769  0.75607172    -0.21100
C706        C  0.01670973  0.57642025  0.75398546    -0.21100
C707        C  0.92877033  0.48434835  0.76766683    -0.22200
C708        C  0.92904430  0.50934291  0.77310147    -0.22200
C709        C  0.08225444  0.48658115  0.75782795    -0.22200
C710        C  0.08234776  0.51178636  0.76209162    -0.22200
C711        C  0.95894202  0.45502439  0.74820999    -0.17500
C712        C  0.05020644  0.45609241  0.74405296    -0.17500
C713        C  0.05043798  0.54512898  0.75912915    -0.17500
C714        C  0.95956868  0.54357217  0.76659377    -0.17500
H715        H  0.97929289  0.41289499  0.72226686     0.15400
H716        H  0.02860872  0.41333906  0.72030625     0.15400
H717        H  0.97882550  0.59184972  0.75385537     0.15400
H718        H  0.02798421  0.59265089  0.74987142     0.15400
H719        H  0.91317092  0.47183532  0.77051814     0.13700
H720        H  0.91366019  0.51988914  0.78083452     0.13700
H721        H  0.09833567  0.47443052  0.75887487     0.13700
H722        H  0.09847243  0.52286674  0.76714202     0.13700
H723        H  0.00516635  0.47739437  0.76031875     0.26900
H724        H  0.00587004  0.51918993  0.76958005     0.26900
N725        N  0.49571723  0.28123665  0.03977520    -0.35800
N726        N  0.53628568  0.28116540  0.00394551    -0.56400
N727        N  0.49997556  0.28511290  0.96380903    -0.35800
N728        N  0.45926419  0.28266630  0.99950212    -0.56400
C729        C  0.51511775  0.27476259  0.05462432     0.27700
C730        C  0.47448281  0.27559772  0.05225810     0.27800
C731        C  0.52097702  0.27907335  0.95112278     0.27700
C732        C  0.48035954  0.27985084  0.94874801     0.27700
C733        C  0.54964497  0.28425009  0.02511918     0.36400
C734        C  0.55189926  0.28633181  0.98481747     0.36400
C735        C  0.44397090  0.28691040  0.01914146     0.36400
C736        C  0.44630037  0.28886260  0.97873882     0.36400
C737        C  0.50611970  0.26492510  0.07680606    -0.21100
C738        C  0.48047851  0.26538472  0.07528990    -0.21100
C739        C  0.51465703  0.26976338  0.92781614    -0.21100
C740        C  0.48900494  0.27008594  0.92638228    -0.21100
C741        C  0.57391115  0.29124550  0.01943470    -0.22200
C742        C  0.57531772  0.29265221  0.99384448    -0.22200
C743        C  0.42116391  0.29585508  0.01081827    -0.22200
C744        C  0.42261611  0.29702389  0.98519396    -0.22200
C745        C  0.54065387  0.27901634  0.04933940    -0.17500
C746        C  0.44993468  0.28135331  0.04428662    -0.17500
C747        C  0.45504991  0.28534331  0.95404941    -0.17500
C748        C  0.54569081  0.28342289  0.95937119    -0.17500
H749        H  0.51690598  0.25837003  0.09257989     0.15400
H750        H  0.46769667  0.25925564  0.08969817     0.15400
H751        H  0.52724787  0.26357701  0.91327234     0.15400
H752        H  0.47799208  0.26422123  0.91048317     0.15400
H753        H  0.58907848  0.29464168  0.03235921     0.13700
H754        H  0.59179727  0.29731138  0.98310638     0.13700
H755        H  0.40507315  0.30076962  0.02200811     0.13700
H756        H  0.40786957  0.30298774  0.97274247     0.13700
H757        H  0.49685845  0.29170008  0.02349568     0.26900
H758        H  0.49922646  0.29511956  0.98043110     0.26900
N759        N  0.46215531  0.78481617  0.99830209    -0.35800
N760        N  0.49871982  0.78297662  0.03813207    -0.56400
N761        N  0.53888194  0.78252132  0.00156068    -0.35800
N762        N  0.50246843  0.78214725  0.96143626    -0.56400
C763        C  0.44737939  0.77905352  0.01803558     0.27700
C764        C  0.44928688  0.77891287  0.97737101     0.27800
C765        C  0.55170650  0.77684702  0.02258288     0.27700
C766        C  0.55382995  0.77708678  0.98192397     0.27700
C767        C  0.47801453  0.78701698  0.05193247     0.36400
C768        C  0.51833598  0.78593337  0.05368779     0.36400
C769        C  0.48290663  0.78601716  0.94592828     0.36400
C770        C  0.52344120  0.78524887  0.94764998     0.36400
C771        C  0.42481487  0.76965857  0.00951375    -0.21100
C772        C  0.42596113  0.76968384  0.98387805    -0.21100
C773        C  0.57519308  0.76799470  0.01623205    -0.21100
C774        C  0.57653081  0.76813658  0.99059249    -0.21100
C775        C  0.48450811  0.79273701  0.07633093    -0.22200
C776        C  0.51008655  0.79194977  0.07746756    -0.22200
C777        C  0.49147483  0.79148112  0.92212820    -0.22200
C778        C  0.51716191  0.79106110  0.92323432    -0.22200
C779        C  0.45341094  0.78272958  0.04351332    -0.17500
C780        C  0.45751503  0.78260790  0.95251775    -0.17500
C781        C  0.54806826  0.78119125  0.95644511    -0.17500
C782        C  0.54335072  0.78076893  0.04734406    -0.17500
H783        H  0.40910263  0.76344444  0.02060497     0.15400
H784        H  0.41126857  0.76351524  0.97144141     0.15400
H785        H  0.58995676  0.76223644  0.02876293     0.15400
H786        H  0.59248895  0.76241765  0.97959192     0.15400
H787        H  0.47208771  0.79636155  0.09185801     0.13700
H788        H  0.52128624  0.79482483  0.09404675     0.13700
H789        H  0.48036713  0.79501121  0.90562141     0.13700
H790        H  0.52976259  0.79421238  0.90774638     0.13700
H791        H  0.47898045  0.79447322  0.99895258     0.26900
H792        H  0.52206827  0.79209802  0.00072944     0.26900
C793        C  0.38731233  0.25895238  0.85552247    -0.13600
C794        C  0.38719000  0.28100136  0.86955057     0.16800
C795        C  0.37210087  0.30095543  0.86162394     0.03100
C796        C  0.35657341  0.29815278  0.84073765    -0.12100
C797        C  0.35556019  0.27558328  0.82733079    -0.03200
C798        C  0.37187074  0.25609369  0.83455582     0.02300
C799        C  0.40347279  0.28302028  0.89195351     0.09200
N800        N  0.37129598  0.32372843  0.87541186     0.65500
H801        H  0.34438714  0.31346383  0.83577524     0.18400
N802        N  0.37301822  0.23322088  0.82096624     0.76000
H803        H  0.39950636  0.24378422  0.86091893     0.10000
C804        C  0.40090118  0.26649671  0.91227544     0.03700
C805        C  0.41752772  0.26783180  0.93244551    -0.05100
C806        C  0.43675770  0.28560977  0.93294945    -0.23500
C807        C  0.43914125  0.30235340  0.91272656     0.12900
C808        C  0.42261558  0.30086604  0.89246243    -0.12600
N809        N  0.38130434  0.24842267  0.91278278     0.64600
H810        H  0.41555908  0.25476345  0.94773900     0.12400
N811        N  0.45836278  0.32084164  0.91242472     0.61200
H812        H  0.42496445  0.31349929  0.87686258     0.08600
O813        O  0.36249508  0.21403586  0.82961136    -0.40300
O814        O  0.38822554  0.23110525  0.80309184    -0.39400
O815        O  0.38097490  0.34314708  0.86632444    -0.39400
O816        O  0.35731354  0.32542232  0.89430244    -0.37100
O817        O  0.47624581  0.31884169  0.89720232    -0.38000
O818        O  0.45486838  0.34127808  0.92349838    -0.34200
O819        O  0.38638308  0.22568398  0.90975622    -0.35600
O820        O  0.35987560  0.25462199  0.92035001    -0.39900
C821        C  0.10215649  0.41900071  0.71275786    -0.13600
C822        C  0.10915868  0.40261621  0.73198065     0.16800
C823        C  0.09638831  0.40371481  0.75502003     0.03100
C824        C  0.07692851  0.42083571  0.75847147    -0.12100
C825        C  0.06996828  0.43714722  0.73929192    -0.03200
C826        C  0.08280381  0.43629265  0.71633470     0.02300
C827        C  0.13057491  0.38528575  0.72836729     0.09200
N828        N  0.10290371  0.38735768  0.77501524     0.65500
H829        H  0.06732805  0.42157199  0.77627117     0.18400
N830        N  0.07665826  0.45330268  0.69677032     0.76000
H831        H  0.11205429  0.41865146  0.69511304     0.10000
C832        C  0.12968100  0.36566417  0.71091032     0.03700
C833        C  0.14977358  0.34891738  0.70897983    -0.05100
C834        C  0.17090473  0.35107529  0.72449992    -0.23500
C835        C  0.17222816  0.37170215  0.74101203     0.12900
C836        C  0.15215117  0.38837803  0.74284520    -0.12600
N837        N  0.10772087  0.36142476  0.69634470     0.64600
H838        H  0.14806424  0.33324974  0.69635838     0.12400
N839        N  0.19385057  0.37610671  0.75603752     0.61200
H840        H  0.15335557  0.40382965  0.75581761     0.08600
O841        O  0.05783187  0.44928176  0.68318222    -0.40300
O842        O  0.08799189  0.47385715  0.69521776    -0.39400
O843        O  0.11368898  0.39584668  0.79416389    -0.39400
O844        O  0.09535119  0.36509823  0.77479379    -0.37100
O845        O  0.21328134  0.38498651  0.74609907    -0.38000
O846        O  0.19223392  0.37505515  0.77952662    -0.34200
O847        O  0.10862984  0.36335204  0.67288421    -0.35600
O848        O  0.08840165  0.35262331  0.70657786    -0.39900
C849        C  0.23955805  0.09408875  0.58846597    -0.13600
C850        C  0.26254475  0.10601030  0.59285991     0.16800
C851        C  0.28395603  0.09774632  0.57988964     0.03100
C852        C  0.28201617  0.07833638  0.56253369    -0.12100
C853        C  0.25902871  0.06679251  0.55788956    -0.03200
C854        C  0.23770113  0.07456358  0.57114131     0.02300
C855        C  0.26439818  0.12552547  0.61250557     0.09200
N856        N  0.30774972  0.10914104  0.58393201     0.65500
H857        H  0.29850118  0.07233951  0.55245164     0.18400
N858        N  0.21415665  0.06263033  0.56724594     0.76000
H859        H  0.22310560  0.09970736  0.59880640     0.10000
C860        C  0.24991875  0.14742140  0.61180348     0.03700
C861        C  0.25134392  0.16466878  0.63147492    -0.05100
C862        C  0.26701703  0.16056159  0.65218592    -0.23500
C863        C  0.28130842  0.13845035  0.65278447     0.12900
C864        C  0.27996171  0.12135801  0.63307731    -0.12600
N865        N  0.23388374  0.15252220  0.59111043     0.64600
H866        H  0.24003462  0.18136344  0.63051739     0.12400
N867        N  0.29501665  0.13151045  0.67445771     0.61200
H868        H  0.29046885  0.10416084  0.63434200     0.08600
O869        O  0.20084335  0.06853136  0.54873779    -0.40300
O870        O  0.20755777  0.04485240  0.58117138    -0.39400
O871        O  0.32536010  0.09663196  0.59328306    -0.39400
O872        O  0.31208304  0.13054242  0.57523154    -0.37100
O873        O  0.28552393  0.11567841  0.68904918    -0.38000
O874        O  0.31822760  0.13555531  0.67520984    -0.34200
O875        O  0.21051081  0.15265696  0.59414429    -0.35600
O876        O  0.24306722  0.16049962  0.57094098    -0.39900
C877        C  0.36031091  0.74781837  0.11487182    -0.13600
C878        C  0.37689026  0.76768995  0.11841660     0.16800
C879        C  0.37340863  0.78378209  0.13883784     0.03100
C880        C  0.35386006  0.77946097  0.15566823    -0.12100
C881        C  0.33739745  0.75920218  0.15261320    -0.03200
C882        C  0.34059513  0.74352489  0.13155396     0.02300
C883        C  0.39703254  0.77190334  0.09995230     0.09200
N884        N  0.39008423  0.80412233  0.14316589     0.65500
H885        H  0.35187084  0.79187362  0.17147714     0.18400
N886        N  0.32432341  0.72294513  0.12690210     0.76000
H887        H  0.36262508  0.73560533  0.09892097     0.10000
C888        C  0.41691844  0.75493989  0.09734978     0.03700
C889        C  0.43491711  0.75869159  0.07877538    -0.05100
C890        C  0.43354122  0.77927539  0.06268887    -0.23500
C891        C  0.41354935  0.79615377  0.06517903     0.12900
C892        C  0.39550478  0.79237612  0.08376570    -0.12600
N893        N  0.41928564  0.73408491  0.11373707     0.64600
H894        H  0.45019012  0.74557913  0.07697631     0.12400
N895        N  0.41136218  0.81715164  0.04896386     0.61200
H896        H  0.38008716  0.80533048  0.08543240     0.08600
O897        O  0.33107061  0.70129177  0.13303271    -0.40300
O898        O  0.30601399  0.72567908  0.11232634    -0.39400
O899        O  0.38294759  0.82608437  0.13884416    -0.39400
O900        O  0.41000973  0.80054682  0.15521873    -0.37100
O901        O  0.39491613  0.81720090  0.03208703    -0.38000
O902        O  0.42277384  0.83705204  0.05415743    -0.34200
O903        O  0.41467410  0.71246615  0.10573104    -0.35600
O904        O  0.43014753  0.73674603  0.13447671    -0.39900
C905        C  0.24956601  0.88552116  0.34932126    -0.13600
C906        C  0.24065218  0.88000958  0.37322242     0.16800
C907        C  0.23035571  0.85637770  0.37800882     0.03100
C908        C  0.23020371  0.83821973  0.35917805    -0.12100
C909        C  0.23994070  0.84329342  0.33527769    -0.03200
C910        C  0.24912668  0.86759873  0.33032897     0.02300
C911        C  0.24289779  0.89904207  0.39304639     0.09200
N912        N  0.21987035  0.85065392  0.40187231     0.65500
H913        H  0.22290616  0.81990423  0.36352767     0.18400
N914        N  0.25803855  0.87452938  0.30615078     0.76000
H915        H  0.25715137  0.90384133  0.34544459     0.10000
C916        C  0.26242306  0.89809668  0.41066319     0.03700
C917        C  0.26456010  0.91677126  0.42877799    -0.05100
C918        C  0.24758460  0.93661913  0.42950048    -0.23500
C919        C  0.22816727  0.93767738  0.41172450     0.12900
C920        C  0.22600023  0.91894463  0.39363196    -0.12600
N921        N  0.28075634  0.87881061  0.40974785     0.64600
H922        H  0.27972007  0.91598793  0.44216567     0.12400
N923        N  0.21042775  0.95753400  0.41202112     0.61200
H924        H  0.21106897  0.91989099  0.38000402     0.08600
O925        O  0.28111548  0.87791731  0.30274835    -0.40300
O926        O  0.24271449  0.88189825  0.28985839    -0.39400
O927        O  0.19812367  0.85803397  0.40710805    -0.39400
O928        O  0.23048777  0.83503962  0.41589552    -0.37100
O929        O  0.19093587  0.95556648  0.42511299    -0.38000
O930        O  0.21206566  0.97481760  0.39614639    -0.34200
O931        O  0.30051241  0.88216546  0.39734281    -0.35600
O932        O  0.27961936  0.86104250  0.42510897    -0.39900
C933        C  0.11071561  0.64608821  0.24062943    -0.13600
C934        C  0.11744381  0.62172311  0.23413447     0.16800
C935        C  0.14202550  0.61689884  0.22621320     0.03100
C936        C  0.15995834  0.63593840  0.22695692    -0.12100
C937        C  0.15368400  0.66009665  0.23502969    -0.03200
C938        C  0.12841153  0.66535953  0.24060581     0.02300
C939        C  0.09896753  0.60141578  0.23744246     0.09200
N940        N  0.14932695  0.59248209  0.21856617     0.65500
H941        H  0.17912038  0.63142179  0.22233874     0.18400
N942        N  0.12029277  0.69024064  0.24554470     0.76000
H943        H  0.09158207  0.65011438  0.24585418     0.10000
C944        C  0.09213425  0.59359119  0.26162387     0.03700
C945        C  0.07392912  0.57512824  0.26475873    -0.05100
C946        C  0.06212186  0.56443313  0.24402911    -0.23500
C947        C  0.06891599  0.57216332  0.21981506     0.12900
C948        C  0.08739128  0.59046880  0.21663509    -0.12600
N949        N  0.10367724  0.60426955  0.28316317     0.64600
H950        H  0.06878216  0.56926657  0.28342507     0.12400
N951        N  0.05688526  0.56175853  0.19840374     0.61200
H952        H  0.09238991  0.59647619  0.19797737     0.08600
O953        O  0.10919365  0.69520864  0.26571910    -0.40300
O954        O  0.12013987  0.70597764  0.22804801    -0.39400
O955        O  0.15108486  0.58752128  0.19560176    -0.39400
O956        O  0.15808672  0.57747564  0.23442083    -0.37100
O957        O  0.03646189  0.57074919  0.19088462    -0.38000
O958        O  0.06489176  0.54172255  0.18907601    -0.34200
O959        O  0.09305333  0.62181753  0.29466586    -0.35600
O960        O  0.12304891  0.59443054  0.29222121    -0.39900
C961        C  0.63045582  0.28805496  0.13340830    -0.13600
C962        C  0.61054171  0.27117111  0.13160771     0.16800
C963        C  0.60948348  0.25093206  0.14832649     0.03100
C964        C  0.62844985  0.24754593  0.16599473    -0.12100
C965        C  0.64890842  0.26393842  0.16737909    -0.03200
C966        C  0.64950635  0.28469752  0.15107475     0.02300
C967        C  0.59233357  0.27358149  0.11080818     0.09200
N968        N  0.58937203  0.23343900  0.14736618     0.65500
H969        H  0.62745297  0.23148642  0.17820065     0.18400
N970        N  0.66940197  0.30242667  0.15195492     0.76000
H971        H  0.63163136  0.30356101  0.12051811     0.10000
C972        C  0.57751434  0.29508209  0.10767673     0.03700
C973        C  0.56086693  0.29664734  0.08750425    -0.05100
C974        C  0.55890946  0.27714492  0.07018521    -0.23500
C975        C  0.57401868  0.25591244  0.07303437     0.12900
C976        C  0.59057640  0.25429863  0.09318261    -0.12600
N977        N  0.57881540  0.31520910  0.12508336     0.64600
H978        H  0.54930105  0.31306163  0.08540164     0.12400
N979        N  0.57246786  0.23572944  0.05573179     0.61200
H980        H  0.60226736  0.23794255  0.09498937     0.08600
O981        O  0.66806651  0.32063692  0.16678107    -0.40300
O982        O  0.68577521  0.30242477  0.13502105    -0.39400
O983        O  0.59317072  0.21183190  0.13892517    -0.39400
O984        O  0.56935574  0.23802862  0.15890768    -0.37100
O985        O  0.58836571  0.23391131  0.03843608    -0.38000
O986        O  0.55782528  0.21782183  0.06005341    -0.34200
O987        O  0.58929657  0.33531826  0.11882739    -0.35600
O988        O  0.56595409  0.31442561  0.14480921    -0.39900
C989        C  0.84953923  0.38618994  0.25075282    -0.13600
C990        C  0.87121352  0.38200403  0.26473068     0.16800
C991        C  0.87374620  0.35948830  0.27789458     0.03100
C992        C  0.85529452  0.34100853  0.27589178    -0.12100
C993        C  0.83382726  0.34465473  0.26114065    -0.03200
C994        C  0.83074430  0.36805269  0.24913713     0.02300
C995        C  0.89143107  0.40093160  0.26442138     0.09200
N996        N  0.89544605  0.35478390  0.29263905     0.65500
H997        H  0.85817958  0.32348263  0.28547356     0.18400
N998        N  0.80873803  0.37382372  0.23517279     0.76000
H999        H  0.84725033  0.40367629  0.24091208     0.10000
C1000       C  0.90676013  0.40384366  0.24322717     0.03700
C1001       C  0.92520792  0.42237378  0.24282141    -0.05100
C1002       C  0.92852898  0.43840681  0.26322733    -0.23500
C1003       C  0.91295362  0.43575372  0.28432835     0.12900
C1004       C  0.89470840  0.41693352  0.28487428    -0.12600
N1005       N  0.90378949  0.38799136  0.22200746     0.64600
H1006       H  0.93701024  0.42430848  0.22649434     0.12400
N1007       N  0.91527894  0.45223315  0.30514589     0.61200
H1008       H  0.88274962  0.41509217  0.30109626     0.08600
O1009       O  0.80981281  0.37514998  0.21167431    -0.40300
O1010       O  0.78959347  0.38173069  0.24639357    -0.39400
O1011       O  0.89528525  0.35996674  0.31561750    -0.39400
O1012       O  0.91308653  0.34202696  0.28370217    -0.37100
O1013       O  0.90332744  0.47247166  0.30526995    -0.38000
O1014       O  0.92537741  0.44463897  0.32501196    -0.34200
O1015       O  0.89341411  0.39619553  0.20252703    -0.35600
O1016       O  0.91398177  0.36682247  0.22173123    -0.39900
C1017       C  0.75849335  0.09693021  0.41275186    -0.13600
C1018       C  0.73476123  0.10570437  0.40588192     0.16800
C1019       C  0.71336983  0.09381636  0.41568594     0.03100
C1020       C  0.71602957  0.07426973  0.43286013    -0.12100
C1021       C  0.73976859  0.06575891  0.43984786    -0.03200
C1022       C  0.76111326  0.07689590  0.42929358     0.02300
C1023       C  0.73295402  0.12609730  0.38717911     0.09200
N1024       N  0.68886310  0.10145525  0.40847349     0.65500
H1025       H  0.69951701  0.06564432  0.44076020     0.18400
N1026       N  0.78550456  0.06764872  0.43482503     0.76000
H1027       H  0.77507505  0.10522566  0.40464650     0.10000
C1028       C  0.74422574  0.14946717  0.39133589     0.03700
C1029       C  0.74531217  0.16707636  0.37202972    -0.05100
C1030       C  0.73536897  0.16192217  0.34824081    -0.23500
C1031       C  0.72333815  0.13868991  0.34444795     0.12900
C1032       C  0.72220150  0.12118886  0.36384221    -0.12600
N1033       N  0.75487457  0.15548367  0.41505501     0.64600
H1034       H  0.75445959  0.18472201  0.37562623     0.12400
N1035       N  0.71385992  0.13166803  0.32053243     0.61200
H1036       H  0.71404875  0.10308041  0.36017300     0.08600
O1037       O  0.79358468  0.04875604  0.42338472    -0.40300
O1038       O  0.80031554  0.08055894  0.44780684    -0.39400
O1039       O  0.67698242  0.08886041  0.39250330    -0.39400
O1040       O  0.67742579  0.11742434  0.42141168    -0.37100
O1041       O  0.72839035  0.12212172  0.30464374    -0.38000
O1042       O  0.69058094  0.13100520  0.31692130    -0.34200
O1043       O  0.77830394  0.15607714  0.41755294    -0.35600
O1044       O  0.74115518  0.16427395  0.43205730    -0.39900
C1045       C  0.59446088  0.75887928  0.90737940    -0.13600
C1046       C  0.61194175  0.77843438  0.90718926     0.16800
C1047       C  0.60745597  0.79953556  0.92228538     0.03100
C1048       C  0.58625345  0.80039256  0.93767729    -0.12100
C1049       C  0.56915520  0.78058040  0.93822633    -0.03200
C1050       C  0.57329047  0.75976367  0.92278158     0.02300
C1051       C  0.63415548  0.77679191  0.89045112     0.09200
N1052       N  0.62463656  0.81990723  0.92275275     0.65500
H1053       H  0.58332794  0.81641134  0.94963197     0.18400
N1054       N  0.55644628  0.73912633  0.92305735     0.76000
H1055       H  0.59727073  0.74279449  0.89549891     0.10000
C1056       C  0.65070668  0.75637415  0.89151143     0.03700
C1057       C  0.67007161  0.75423113  0.87403372    -0.05100
C1058       C  0.67338752  0.77199892  0.85503584    -0.23500
C1059       C  0.65719595  0.79281996  0.85441292     0.12900
C1060       C  0.63785389  0.79497688  0.87198322    -0.12600
N1061       N  0.64790879  0.73742697  0.91004616     0.64600
H1062       H  0.68205823  0.73800857  0.87488861     0.12400
N1063       N  0.65996102  0.81189089  0.83600758     0.61200
H1064       H  0.62513888  0.81059499  0.87065290     0.08600
O1065       O  0.54079709  0.73653052  0.90563507    -0.40300
O1066       O  0.55960968  0.72173476  0.93856734    -0.39400
O1067       O  0.61909995  0.83996834  0.91182212    -0.39400
O1068       O  0.64284557  0.81947601  0.93769737    -0.37100
O1069       O  0.64601296  0.81185871  0.81701208    -0.38000
O1070       O  0.67262099  0.83106614  0.84107327    -0.34200
O1071       O  0.64136257  0.71577928  0.90359205    -0.35600
O1072       O  0.65641011  0.74100438  0.93172346    -0.39900
C1073       C  0.89429096  0.64619513  0.76706484    -0.13600
C1074       C  0.88586417  0.62230413  0.77341262     0.16800
C1075       C  0.86059252  0.61886944  0.77983045     0.03100
C1076       C  0.84404512  0.63907501  0.77893632    -0.12100
C1077       C  0.85216382  0.66293986  0.77160200    -0.03200
C1078       C  0.87776552  0.66645186  0.76615506     0.02300
C1079       C  0.90364619  0.60116170  0.77245279     0.09200
N1080       N  0.85144450  0.59496429  0.78720457     0.65500
H1081       H  0.82452961  0.63580895  0.78320803     0.18400
N1082       N  0.88741088  0.69053148  0.76019860     0.76000
H1083       H  0.91380225  0.64906764  0.76248677     0.10000
C1084       C  0.90354584  0.58431688  0.75225359     0.03700
C1085       C  0.92138757  0.56528058  0.75112776    -0.05100
C1086       C  0.93965064  0.56278772  0.76974723    -0.23500
C1087       C  0.93944761  0.57934959  0.79021881     0.12900
C1088       C  0.92156819  0.59842592  0.79136349    -0.12600
N1089       N  0.88633279  0.58717117  0.73205347     0.64600
H1090       H  0.92155432  0.55286524  0.73516901     0.12400
N1091       N  0.95725093  0.57694980  0.80994593     0.61200
H1092       H  0.92172497  0.61123290  0.80700391     0.08600
O1093       O  0.89462652  0.69511575  0.73824868    -0.40300
O1094       O  0.89316657  0.70527545  0.77762385    -0.39400
O1095       O  0.85092411  0.58934949  0.81007427    -0.39400
O1096       O  0.83923971  0.58196214  0.77182502    -0.37100
O1097       O  0.97476994  0.59256397  0.81188951    -0.38000
O1098       O  0.95302348  0.56202944  0.82764669    -0.34200
O1099       O  0.88955533  0.60449466  0.71646544    -0.35600
O1100       O  0.87106511  0.56993540  0.72715133    -0.39900
C1101       C  0.78442901  0.86415398  0.62808689    -0.13600
C1102       C  0.76451087  0.88114141  0.62696679     0.16800
C1103       C  0.74538283  0.87961597  0.64486659     0.03100
C1104       C  0.74636244  0.86145777  0.66346648    -0.12100
C1105       C  0.76594743  0.84404176  0.66464791    -0.03200
C1106       C  0.78515213  0.84546428  0.64652893     0.02300
C1107       C  0.76287426  0.89947846  0.60629729     0.09200
N1108       N  0.72459601  0.89628087  0.64422172     0.65500
H1109       H  0.73114487  0.86062497  0.67670864     0.18400
N1110       N  0.80523461  0.82797612  0.64629231     0.76000
H1111       H  0.79910862  0.86499241  0.61417918     0.10000
C1112       C  0.77972795  0.91956413  0.60432034     0.03700
C1113       C  0.77684648  0.93708016  0.58509486    -0.05100
C1114       C  0.75710094  0.93511994  0.56794564    -0.23500
C1115       C  0.74058892  0.91473388  0.56963345     0.12900
C1116       C  0.74362914  0.89710221  0.58865704    -0.12600
N1117       N  0.79905542  0.92306233  0.62239725     0.64600
H1118       H  0.78962225  0.95270216  0.58394128     0.12400
N1119       N  0.72022637  0.91212900  0.55258711     0.61200
H1120       H  0.73066625  0.88163961  0.58990804     0.08600
O1121       O  0.82547140  0.83325670  0.65714763    -0.40300
O1122       O  0.80436750  0.80956695  0.63166985    -0.39400
O1123       O  0.70374898  0.88866953  0.63628656    -0.39400
O1124       O  0.72588583  0.91683776  0.65555454    -0.37100
O1125       O  0.72220386  0.89756466  0.53420334    -0.38000
O1126       O  0.69905799  0.92067551  0.55836176    -0.34200
O1127       O  0.82164104  0.92258026  0.61568566    -0.35600
O1128       O  0.79354015  0.93021067  0.64415781    -0.39900
C1129       C  0.73433189  0.39597580  0.08939535    -0.13600
C1130       C  0.75812724  0.39041429  0.09883811     0.16800
C1131       C  0.77873109  0.40512215  0.09163512     0.03100
C1132       C  0.77523609  0.42505422  0.07519923    -0.12100
C1133       C  0.75148017  0.43059476  0.06575606    -0.03200
C1134       C  0.73084040  0.41602741  0.07306054     0.02300
C1135       C  0.76088573  0.36948678  0.11656798     0.09200
N1136       N  0.80340914  0.39944061  0.10006468     0.65500
H1137       H  0.79119787  0.43606663  0.06941842     0.18400
N1138       N  0.70632054  0.42141069  0.06402690     0.76000
H1139       H  0.71837143  0.38487377  0.09500176     0.10000
C1140       C  0.76746400  0.37360318  0.14169797     0.03700
C1141       C  0.76891982  0.35344683  0.15814372    -0.05100
C1142       C  0.76307657  0.32913044  0.15031916    -0.23500
C1143       C  0.75737526  0.32496195  0.12489052     0.12900
C1144       C  0.75626902  0.34513538  0.10831144    -0.12600
N1145       N  0.77058164  0.39828123  0.15131465     0.64600
H1146       H  0.77278783  0.35721253  0.17764168     0.12400
N1147       N  0.75315848  0.30040670  0.11549721     0.61200
H1148       H  0.75162908  0.34181399  0.08889256     0.08600
O1149       O  0.69655557  0.40753217  0.04770093    -0.40300
O1150       O  0.69289032  0.43693755  0.07551292    -0.39400
O1151       O  0.81465072  0.38079783  0.09117877    -0.39400
O1152       O  0.81552608  0.41538740  0.11244540    -0.37100
O1153       O  0.73163043  0.29427606  0.10814182    -0.38000
O1154       O  0.77162966  0.28713858  0.10945023    -0.34200
O1155       O  0.75196862  0.41263710  0.15247925    -0.35600
O1156       O  0.79025788  0.40388748  0.16302002    -0.39900
C1157       C  0.72308050  0.58647674  0.90858832    -0.13600
C1158       C  0.74283953  0.60347035  0.90582331     0.16800
C1159       C  0.76316268  0.60246560  0.92260484     0.03100
C1160       C  0.76372819  0.58427475  0.94133811    -0.12100
C1161       C  0.74427458  0.56698648  0.94365431    -0.03200
C1162       C  0.72361424  0.56841328  0.92746428     0.02300
C1163       C  0.74190342  0.62248097  0.88571820     0.09200
N1164       N  0.78379544  0.61920520  0.92021403     0.65500
H1165       H  0.77969439  0.58320824  0.95372887     0.18400
N1166       N  0.70296655  0.55177938  0.93030463     0.76000
H1167       H  0.70709497  0.58743267  0.89622302     0.10000
C1168       C  0.74203907  0.61564026  0.86030907     0.03700
C1169       C  0.74325146  0.63403681  0.84178115    -0.05100
C1170       C  0.74383567  0.65940949  0.84809401    -0.23500
C1171       C  0.74251699  0.66625368  0.87357771     0.12900
C1172       C  0.74163666  0.64781049  0.89206483    -0.12600
N1173       N  0.74199994  0.59004124  0.85307938     0.64600
H1174       H  0.74412813  0.62843037  0.82236001     0.12400
N1175       N  0.74378587  0.69176351  0.88110731     0.61200
H1176       H  0.74130458  0.65329102  0.91154187     0.08600
O1177       O  0.68748463  0.55509641  0.94775744    -0.40300
O1178       O  0.70142049  0.53257643  0.91681955    -0.39400
O1179       O  0.78750867  0.63560398  0.93668214    -0.39400
O1180       O  0.80020016  0.61531786  0.90375478    -0.37100
O1181       O  0.72420758  0.70282983  0.88807282    -0.38000
O1182       O  0.76478858  0.70182428  0.88471312    -0.34200
O1183       O  0.72209137  0.58015690  0.84525937    -0.35600
O1184       O  0.76242629  0.57858166  0.85075866    -0.39900
C1185       C  0.21984876  0.40569760  0.90397083    -0.13600
C1186       C  0.24235279  0.40249313  0.89079164     0.16800
C1187       C  0.26268736  0.41843013  0.89625891     0.03100
C1188       C  0.26036890  0.43658791  0.91485436    -0.12100
C1189       C  0.23808365  0.43935698  0.92826586    -0.03200
C1190       C  0.21761605  0.42387340  0.92262843     0.02300
C1191       C  0.24393816  0.38325581  0.87075772     0.09200
N1192       N  0.28602574  0.41610237  0.88350793     0.65500
H1193       H  0.27621950  0.44840943  0.91915406     0.18400
N1194       N  0.19435814  0.42674757  0.93539035     0.76000
H1195       H  0.20372251  0.39439317  0.89941111     0.10000
C1196       C  0.23647861  0.35830696  0.87491279     0.03700
C1197       C  0.23777797  0.34086622  0.85546835    -0.05100
C1198       C  0.24676771  0.34772226  0.83193763    -0.23500
C1199       C  0.25415925  0.37250730  0.82764365     0.12900
C1200       C  0.25235126  0.39009371  0.84685580    -0.12600
N1201       N  0.22817207  0.35020802  0.89893075     0.64600
H1202       H  0.23209809  0.32178856  0.85886708     0.12400
N1203       N  0.26349068  0.38007888  0.80382446     0.61200
H1204       H  0.25737617  0.40924099  0.84297041     0.08600
O1205       O  0.18688325  0.40998184  0.95011302    -0.40300
O1206       O  0.17971313  0.44406021  0.92916867    -0.39400
O1207       O  0.29337585  0.43341738  0.86936042    -0.39400
O1208       O  0.30110258  0.39920944  0.88984293    -0.37100
O1209       O  0.24880514  0.38963254  0.78811385    -0.38000
O1210       O  0.28675625  0.38168909  0.80042275    -0.34200
O1211       O  0.20569575  0.34377524  0.90194747    -0.35600
O1212       O  0.24401482  0.34528238  0.91564688    -0.39900
C1213       C  0.24079133  0.59517137  0.08996553    -0.13600
C1214       C  0.26444287  0.59724519  0.10117644     0.16800
C1215       C  0.28433975  0.58265857  0.09191842     0.03100
C1216       C  0.28001170  0.56574524  0.07240875    -0.12100
C1217       C  0.25614217  0.56314393  0.06196871    -0.03200
C1218       C  0.23657938  0.57837406  0.07045461     0.02300
C1219       C  0.26698455  0.61341774  0.12355440     0.09200
N1220       N  0.30864940  0.58384950  0.10286280     0.65500
H1221       H  0.29518044  0.55417654  0.06572818     0.18400
N1222       N  0.21226426  0.57662979  0.05960997     0.76000
H1223       H  0.22540131  0.60641162  0.09671731     0.10000
C1224       C  0.28241161  0.63471922  0.12406996     0.03700
C1225       C  0.28182988  0.65061848  0.14490013    -0.05100
C1226       C  0.26552674  0.64622653  0.16512025    -0.23500
C1227       C  0.25098471  0.62416704  0.16486630     0.12900
C1228       C  0.25200473  0.60809183  0.14433100    -0.12600
N1229       N  0.29714882  0.64164353  0.10288519     0.64600
H1230       H  0.29309236  0.66736964  0.14443302     0.12400
N1231       N  0.23390687  0.61838550  0.18452562     0.61200
H1232       H  0.24019526  0.59167773  0.14420025     0.08600
O1233       O  0.19668792  0.56109144  0.06798467    -0.40300
O1234       O  0.20688543  0.58950674  0.04066027    -0.39400
O1235       O  0.31268074  0.57281631  0.12326071    -0.39400
O1236       O  0.32692671  0.59094021  0.08977766    -0.37100
O1237       O  0.21112306  0.62385947  0.18207229    -0.38000
O1238       O  0.24045551  0.60355645  0.20157276    -0.34200
O1239       O  0.28644688  0.64881884  0.08316737    -0.35600
O1240       O  0.32028249  0.64538235  0.10547687    -0.39900
C1241       C  0.36055219  0.11539062  0.76213362    -0.13600
C1242       C  0.38423637  0.12232296  0.77085241     0.16800
C1243       C  0.38803713  0.14696237  0.77901078     0.03100
C1244       C  0.36844042  0.16433940  0.77765272    -0.12100
C1245       C  0.34497557  0.15777921  0.76768750    -0.03200
C1246       C  0.34105943  0.13281913  0.76048376     0.02300
C1247       C  0.40515030  0.10419750  0.76889376     0.09200
N1248       N  0.41200918  0.15486910  0.78763699     0.65500
H1249       H  0.37201544  0.18339683  0.78325551     0.18400
N1250       N  0.31760303  0.12495374  0.75077037     0.76000
H1251       H  0.35739735  0.09647623  0.75579863     0.10000
C1252       C  0.40966057  0.08619599  0.78751267     0.03700
C1253       C  0.42786621  0.06772479  0.78369959    -0.05100
C1254       C  0.44165729  0.06678921  0.76140883    -0.23500
C1255       C  0.43727850  0.08492101  0.74290501     0.12900
C1256       C  0.41928164  0.10351415  0.74683204    -0.12600
N1257       N  0.39560301  0.08622531  0.81017355     0.64600
H1258       H  0.43108148  0.05388031  0.79805556     0.12400
N1259       N  0.45010892  0.08389099  0.71954048     0.61200
H1260       H  0.41566634  0.11697504  0.73220153     0.08600
O1261       O  0.30128017  0.11633380  0.76540351    -0.40300
O1262       O  0.31580327  0.12075063  0.72772349    -0.39400
O1263       O  0.42710117  0.16489067  0.77258037    -0.39400
O1264       O  0.41646097  0.15555484  0.81075991    -0.37100
O1265       O  0.44277271  0.06895700  0.70288222    -0.38000
O1266       O  0.46606743  0.10034131  0.71417728    -0.34200
O1267       O  0.37786468  0.07098733  0.81292464    -0.35600
O1268       O  0.40353708  0.09828790  0.82877679    -0.39900
C1269       C  0.58220863  0.89369265  0.72206007    -0.13600
C1270       C  0.60063350  0.89197377  0.74057469     0.16800
C1271       C  0.60162903  0.91023930  0.75945718     0.03100
C1272       C  0.58427807  0.92974770  0.75965852    -0.12100
C1273       C  0.56600837  0.93178209  0.74096259    -0.03200
C1274       C  0.56514989  0.91355081  0.72191652     0.02300
C1275       C  0.61984945  0.87211803  0.73912290     0.09200
N1276       N  0.62010091  0.90906321  0.77867688     0.65500
H1277       H  0.58498999  0.94336944  0.77457724     0.18400
N1278       N  0.54764572  0.91547145  0.70185686     0.76000
H1279       H  0.58161966  0.88001928  0.70718719     0.10000
C1280       C  0.61436201  0.84721829  0.74521201     0.03700
C1281       C  0.63360194  0.82949357  0.74605524    -0.05100
C1282       C  0.65841878  0.83598682  0.74022852    -0.23500
C1283       C  0.66348803  0.86075062  0.73265156     0.12900
C1284       C  0.64430530  0.87850406  0.73239202    -0.12600
N1285       N  0.58946135  0.83985873  0.75132115     0.64600
H1286       H  0.62912873  0.81061702  0.75163992     0.12400
N1287       N  0.68817513  0.86859195  0.72627549     0.61200
H1288       H  0.64864126  0.89758568  0.72740132     0.08600
O1289       O  0.55109417  0.93146597  0.68494705    -0.40300
O1290       O  0.53142454  0.89868593  0.69876969    -0.39400
O1291       O  0.63775059  0.92464895  0.77895534    -0.39400
O1292       O  0.61680887  0.89490335  0.79718542    -0.37100
O1293       O  0.69333040  0.87329971  0.70378418    -0.38000
O1294       O  0.70290890  0.87563383  0.74326242    -0.34200
O1295       O  0.57523592  0.83170033  0.73440350    -0.35600
O1296       O  0.58306419  0.83782683  0.77390160    -0.39900
C1297       C  0.38072095  0.78589788  0.85616329    -0.13600
C1298       C  0.37880209  0.77305879  0.87881748     0.16800
C1299       C  0.35735895  0.75857767  0.88349171     0.03100
C1300       C  0.33871628  0.75643327  0.86515786    -0.12100
C1301       C  0.34065971  0.76892089  0.84207540    -0.03200
C1302       C  0.36198180  0.78413430  0.83792794     0.02300
C1303       C  0.39932262  0.77530878  0.89735713     0.09200
N1304       N  0.35386018  0.74662357  0.90708557     0.65500
H1305       H  0.32259866  0.74488232  0.86912543     0.18400
N1306       N  0.36520710  0.79778107  0.81525951     0.76000
H1307       H  0.39702467  0.79732534  0.85253572     0.10000
C1308       C  0.41624746  0.75564277  0.90171413     0.03700
C1309       C  0.43556460  0.75859184  0.91917097    -0.05100
C1310       C  0.43841474  0.78096410  0.93236291    -0.23500
C1311       C  0.42172144  0.80070526  0.92780091     0.12900
C1312       C  0.40242259  0.79780129  0.91033148    -0.12600
N1313       N  0.41442443  0.73281341  0.88813746     0.64600
H1314       H  0.44826693  0.74328181  0.92265184     0.12400
N1315       N  0.42419778  0.82377225  0.94084603     0.61200
H1316       H  0.38967980  0.81310540  0.90698188     0.08600
O1317       O  0.38034372  0.78994378  0.79900427    -0.40300
O1318       O  0.35708968  0.81978298  0.81380812    -0.39400
O1319       O  0.34678586  0.75932897  0.92560134    -0.39400
O1320       O  0.35306358  0.72317126  0.90824918    -0.37100
O1321       O  0.43651772  0.84133527  0.93117834    -0.38000
O1322       O  0.41132105  0.82775323  0.96016890    -0.34200
O1323       O  0.42494410  0.73102217  0.86713186    -0.35600
O1324       O  0.40745809  0.71330229  0.89926790    -0.39900
C1325       C  0.11669887  0.64616022  0.75031870    -0.13600
C1326       C  0.12214793  0.62596838  0.76591651     0.16800
C1327       C  0.14420721  0.62648000  0.78025107     0.03100
C1328       C  0.16080439  0.64662618  0.77799994    -0.12100
C1329       C  0.15606842  0.66641199  0.76134806    -0.03200
C1330       C  0.13323944  0.66624611  0.74792236     0.02300
C1331       C  0.10515991  0.60408507  0.76547964     0.09200
N1332       N  0.15086969  0.60597500  0.79588415     0.65500
H1333       H  0.17806379  0.64610466  0.78854956     0.18400
N1334       N  0.12684135  0.68576991  0.73099116     0.76000
H1335       H  0.09967737  0.64601437  0.73935488     0.10000
C1336       C  0.08905092  0.59847466  0.78553660     0.03700
C1337       C  0.07169691  0.57897287  0.78327796    -0.05100
C1338       C  0.06991641  0.56500299  0.76117235    -0.23500
C1339       C  0.08643311  0.57030070  0.74133287     0.12900
C1340       C  0.10385245  0.58967326  0.74365303    -0.12600
N1341       N  0.08920451  0.61319149  0.80776639     0.64600
H1342       H  0.05909958  0.57507446  0.79863050     0.12400
N1343       N  0.08506687  0.55681931  0.71836866     0.61200
H1344       H  0.11605398  0.59391569  0.72806740     0.08600
O1345       O  0.11230318  0.70285784  0.73804059    -0.40300
O1346       O  0.13154066  0.68326433  0.70804253    -0.39400
O1347       O  0.16162514  0.58734329  0.78639099    -0.39400
O1348       O  0.15119444  0.60881789  0.81927072    -0.37100
O1349       O  0.07067481  0.56435294  0.70132352    -0.38000
O1350       O  0.10158662  0.54085603  0.71330010    -0.34200
O1351       O  0.07875930  0.63424161  0.80775019    -0.35600
O1352       O  0.09535423  0.60336689  0.82826033    -0.39900
C1353       C  0.23602633  0.89073236  0.64263461    -0.13600
C1354       C  0.23555974  0.88273908  0.61764669     0.16800
C1355       C  0.23469155  0.85700858  0.61255052     0.03100
C1356       C  0.23534485  0.83982796  0.63219111    -0.12100
C1357       C  0.23703730  0.84771916  0.65715909    -0.03200
C1358       C  0.23670157  0.87348514  0.66234642     0.02300
C1359       C  0.23843248  0.90125564  0.59718806     0.09200
N1360       N  0.23350105  0.84804262  0.58744901     0.65500
H1361       H  0.23548491  0.82013172  0.62776611     0.18400
N1362       N  0.23658439  0.88239331  0.68748185     0.76000
H1363       H  0.23663752  0.91045644  0.64685157     0.10000
C1364       C  0.22134856  0.92094676  0.59386359     0.03700
C1365       C  0.22563018  0.93890663  0.57534118    -0.05100
C1366       C  0.24676542  0.93759795  0.55989525    -0.23500
C1367       C  0.26376090  0.91783200  0.56306811     0.12900
C1368       C  0.25950038  0.89990727  0.58160441    -0.12600
N1369       N  0.19918753  0.92248502  0.60862882     0.64600
H1370       H  0.21226561  0.95383299  0.57279098     0.12400
N1371       N  0.28575428  0.91613802  0.54804526     0.61200
H1372       H  0.27306476  0.88518475  0.58426626     0.08600
O1373       O  0.21601972  0.88574624  0.69848626    -0.40300
O1374       O  0.25635067  0.89109551  0.69688969    -0.39400
O1375       O  0.25222655  0.83737770  0.57795843    -0.39400
O1376       O  0.21268982  0.84696030  0.57645090    -0.37100
O1377       O  0.30466379  0.92905869  0.55355702    -0.38000
O1378       O  0.28773384  0.89890542  0.53214943    -0.34200
O1379       O  0.19720703  0.93930024  0.62496420    -0.35600
O1380       O  0.18013715  0.91014835  0.60231753    -0.39900
C1381       C  0.25913443  0.61541876  0.85077869    -0.13600
C1382       C  0.26261769  0.62365601  0.87535094     0.16800
C1383       C  0.26833005  0.64887428  0.87972307     0.03100
C1384       C  0.26976595  0.66554337  0.85959077    -0.12100
C1385       C  0.26534194  0.65757025  0.83491887    -0.03200
C1386       C  0.26046560  0.63204063  0.83063002     0.02300
C1387       C  0.26026616  0.60545013  0.89600775     0.09200
N1388       N  0.27234333  0.65788766  0.90451105     0.65500
H1389       H  0.27335118  0.68503033  0.86345221     0.18400
N1390       N  0.25725986  0.62258182  0.80590566     0.76000
H1391       H  0.25518404  0.59593544  0.84723892     0.10000
C1392       C  0.23759760  0.60248291  0.90907657     0.03700
C1393       C  0.23526182  0.58366922  0.92707628    -0.05100
C1394       C  0.25518873  0.56752814  0.93213178    -0.23500
C1395       C  0.27802181  0.57082034  0.91946541     0.12900
C1396       C  0.28040410  0.58969100  0.90151337    -0.12600
N1397       N  0.21654739  0.61787602  0.90362635     0.64600
H1398       H  0.21768406  0.58132405  0.93683687     0.12400
N1399       N  0.29885239  0.55505725  0.92464250     0.61200
H1400       H  0.29789087  0.59181864  0.89154243     0.08600
O1401       O  0.23592926  0.61554215  0.79877117    -0.40300
O1402       O  0.27623329  0.61699128  0.79310864    -0.39400
O1403       O  0.29436626  0.66087980  0.91234384    -0.39400
O1404       O  0.25443271  0.66747419  0.91641466    -0.37100
O1405       O  0.30203567  0.53546370  0.91204213    -0.38000
O1406       O  0.31585275  0.56247448  0.93917385    -0.34200
O1407       O  0.20185574  0.61176304  0.88625093    -0.35600
O1408       O  0.21004250  0.63447568  0.91897368    -0.39900
C1409       C  0.36693524  0.87703833  0.71285001    -0.13600
C1410       C  0.38702827  0.87623634  0.72962800     0.16800
C1411       C  0.38948194  0.85558341  0.74561680     0.03100
C1412       C  0.37145871  0.83675674  0.74539161    -0.12100
C1413       C  0.35048189  0.83799129  0.72959946    -0.03200
C1414       C  0.34870288  0.85821887  0.71268007     0.02300
C1415       C  0.40391605  0.89803205  0.73203421     0.09200
N1416       N  0.40996338  0.85373263  0.76263771     0.65500
H1417       H  0.37358437  0.82149600  0.75841862     0.18400
N1418       N  0.32811069  0.86055059  0.69588262     0.76000
H1419       H  0.36479374  0.89290381  0.70053831     0.10000
C1420       C  0.41866938  0.90649382  0.71193844     0.03700
C1421       C  0.43490803  0.92669260  0.71535666    -0.05100
C1422       C  0.43665762  0.93867013  0.73856892    -0.23500
C1423       C  0.42136283  0.93075984  0.75840281     0.12900
C1424       C  0.40505919  0.91067164  0.75497569    -0.12600
N1425       N  0.41830431  0.89398477  0.68839677     0.64600
H1426       H  0.44685846  0.93253136  0.70010251     0.12400
N1427       N  0.42306937  0.94222988  0.78240796     0.61200
H1428       H  0.39345633  0.90467092  0.77042785     0.08600
O1429       O  0.33003422  0.85232711  0.67389612    -0.40300
O1430       O  0.31020942  0.87479285  0.70138432    -0.39400
O1431       O  0.40622225  0.85645907  0.78574357    -0.39400
O1432       O  0.43054130  0.84506785  0.75515972    -0.37100
O1433       O  0.40796101  0.95927599  0.78825266    -0.38000
O1434       O  0.43665041  0.93256607  0.79903314    -0.34200
O1435       O  0.40847527  0.90444686  0.66973874    -0.35600
O1436       O  0.43154370  0.87481526  0.68525834    -0.39900
C1437       C  0.10238712  0.70006967  0.41617199    -0.13600
C1438       C  0.10503899  0.72159489  0.40154524     0.16800
C1439       C  0.08618730  0.74001552  0.40253527     0.03100
C1440       C  0.06573795  0.73702486  0.41874934    -0.12100
C1441       C  0.06332690  0.71559973  0.43352365    -0.03200
C1442       C  0.08173864  0.69693471  0.43196178     0.02300
C1443       C  0.12707471  0.72391303  0.38467706     0.09200
N1444       N  0.08702468  0.76130094  0.38648880     0.65500
H1445       H  0.05164972  0.75145621  0.41983976     0.18400
N1446       N  0.07962594  0.67467680  0.44640456     0.76000
H1447       H  0.11648795  0.68562884  0.41535601     0.10000
C1448       C  0.14470177  0.74334868  0.38705001     0.03700
C1449       C  0.16406250  0.74572728  0.36945613    -0.05100
C1450       C  0.16673383  0.72865766  0.34965937    -0.23500
C1451       C  0.14992107  0.70828988  0.34844115     0.12900
C1452       C  0.13028839  0.70629558  0.36565608    -0.12600
N1453       N  0.14368796  0.76029746  0.40764254     0.64600
H1454       H  0.17692221  0.76121839  0.37121529     0.12400
N1455       N  0.15256586  0.68924179  0.33001381     0.61200
H1456       H  0.11723995  0.69093931  0.36397706     0.08600
O1457       O  0.06803930  0.65617793  0.43761754    -0.40300
O1458       O  0.09198535  0.67237485  0.46632640    -0.39400
O1459       O  0.08549298  0.75839232  0.36315287    -0.39400
O1460       O  0.08500362  0.78287811  0.39560511    -0.37100
O1461       O  0.16587939  0.67045159  0.33473120    -0.38000
O1462       O  0.13781045  0.68867049  0.31166490    -0.34200
O1463       O  0.14868528  0.75255550  0.42932115    -0.35600
O1464       O  0.14266804  0.78343224  0.40365018    -0.39900
C1465       C  0.89878991  0.69794130  0.58821792    -0.13600
C1466       C  0.89882858  0.71993233  0.60243861     0.16800
C1467       C  0.91830906  0.73739069  0.59885522     0.03100
C1468       C  0.93665138  0.73291682  0.58070593    -0.12100
C1469       C  0.93643410  0.71102096  0.56644393    -0.03200
C1470       C  0.91742985  0.69332108  0.57045899     0.02300
C1471       C  0.87843147  0.72395455  0.62092243     0.09200
N1472       N  0.92029680  0.75923471  0.61404301     0.65500
H1473       H  0.95130871  0.74654729  0.57779042     0.18400
N1474       N  0.91690477  0.67055349  0.55667580     0.76000
H1475       H  0.88408586  0.68430550  0.59083979     0.10000
C1476       C  0.86266127  0.74502403  0.62007870     0.03700
C1477       C  0.84398463  0.74803609  0.63821841    -0.05100
C1478       C  0.83992313  0.73002414  0.65684831    -0.23500
C1479       C  0.85503153  0.70843875  0.65691362     0.12900
C1480       C  0.87424210  0.70581811  0.63932007    -0.12600
N1481       N  0.86456216  0.76292221  0.60034095     0.64600
H1482       H  0.83249570  0.76461391  0.63762181     0.12400
N1483       N  0.85043247  0.68847155  0.67394735     0.61200
H1484       H  0.88581693  0.68927883  0.63983606     0.08600
O1485       O  0.90193430  0.66815171  0.53863912    -0.40300
O1486       O  0.92766217  0.65156963  0.56541369    -0.39400
O1487       O  0.92444903  0.75703120  0.63713057    -0.39400
O1488       O  0.92275528  0.78029178  0.60385989    -0.37100
O1489       O  0.83307960  0.67320992  0.66940849    -0.38000
O1490       O  0.86633355  0.68338709  0.69055980    -0.34200
O1491       O  0.86139301  0.75607586  0.57801764    -0.35600
O1492       O  0.86494098  0.78588257  0.60538998    -0.39900
C1493       C  0.10513468  0.70221818  0.58012199    -0.13600
C1494       C  0.10586847  0.72281847  0.59625124     0.16800
C1495       C  0.08638493  0.74047666  0.59526699     0.03100
C1496       C  0.06648952  0.73718467  0.57854998    -0.12100
C1497       C  0.06573532  0.71654572  0.56252594    -0.03200
C1498       C  0.08526690  0.69897627  0.56333161     0.02300
C1499       C  0.12736483  0.72603059  0.61354053     0.09200
N1500       N  0.08654638  0.76180126  0.61121679     0.65500
H1501       H  0.05173494  0.75096353  0.57779439     0.18400
N1502       N  0.08522668  0.67796181  0.54692050     0.76000
H1503       H  0.12012405  0.68868332  0.58049838     0.10000
C1504       C  0.13123861  0.70980722  0.63382078     0.03700
C1505       C  0.15110514  0.71400791  0.65038477    -0.05100
C1506       C  0.16767267  0.73414308  0.64711467    -0.23500
C1507       C  0.16435699  0.74967798  0.62595155     0.12900
C1508       C  0.14424103  0.74560837  0.60962975    -0.12600
N1509       N  0.11459392  0.68949388  0.63835634     0.64600
H1510       H  0.15327967  0.70160378  0.66616239     0.12400
N1511       N  0.18085492  0.76999586  0.62091811     0.61200
H1512       H  0.14173488  0.75789669  0.59377829     0.08600
O1513       O  0.06808029  0.66188495  0.54838281    -0.40300
O1514       O  0.10130696  0.67639915  0.52976592    -0.39400
O1515       O  0.09452343  0.78234512  0.60300873    -0.39400
O1516       O  0.07472591  0.76120484  0.63158806    -0.37100
O1517       O  0.19954063  0.76664283  0.60695858    -0.38000
O1518       O  0.17435351  0.79187669  0.62650146    -0.34200
O1519       O  0.12044304  0.66791194  0.63112583    -0.35600
O1520       O  0.09656611  0.69226035  0.65327283    -0.39900
C1521       C  0.64179284  0.76495184  0.11702422    -0.13600
C1522       C  0.61741870  0.77035744  0.12478624     0.16800
C1523       C  0.61210571  0.77232337  0.15040216     0.03100
C1524       C  0.63116030  0.76861165  0.16792891    -0.12100
C1525       C  0.65562490  0.76262831  0.16030684    -0.03200
C1526       C  0.66088534  0.76112047  0.13450201     0.02300
C1527       C  0.59767653  0.77351435  0.10582924     0.09200
N1528       N  0.58733843  0.77763557  0.15880972     0.65500
H1529       H  0.62660736  0.76974430  0.18761210     0.18400
N1530       N  0.68565997  0.75662918  0.12571978     0.76000
H1531       H  0.64600199  0.76372894  0.09726473     0.10000
C1532       C  0.59285898  0.79693363  0.09505301     0.03700
C1533       C  0.57500203  0.79908599  0.07608208    -0.05100
C1534       C  0.56166050  0.77815400  0.06793824    -0.23500
C1535       C  0.56586856  0.75489200  0.07929164     0.12900
C1536       C  0.58397762  0.75266425  0.09800369    -0.12600
N1537       N  0.60602535  0.81860515  0.10319180     0.64600
H1538       H  0.57158821  0.81707575  0.06758954     0.12400
N1539       N  0.55197027  0.73343602  0.07177867     0.61200
H1540       H  0.58745417  0.73463696  0.10639512     0.08600
O1541       O  0.69136287  0.73544962  0.11728645    -0.40300
O1542       O  0.70027073  0.77475960  0.12230170    -0.39400
O1543       O  0.57155076  0.76029638  0.16086538    -0.39400
O1544       O  0.58101473  0.79976204  0.16354426    -0.37100
O1545       O  0.56046715  0.71919087  0.05508693    -0.38000
O1546       O  0.53055217  0.72949375  0.08079159    -0.34200
O1547       O  0.62618385  0.82469326  0.09262241    -0.35600
O1548       O  0.59559735  0.83366142  0.11796531    -0.39900
C1549       C  0.86224273  0.62849703  0.22413998    -0.13600
C1550       C  0.88261233  0.63015486  0.24045987     0.16800
C1551       C  0.88519638  0.65150076  0.25555705     0.03100
C1552       C  0.86658763  0.66984899  0.25535274    -0.12100
C1553       C  0.84532011  0.66770117  0.23998495    -0.03200
C1554       C  0.84375323  0.64697841  0.22365075     0.02300
C1555       C  0.89995572  0.60867364  0.24258553     0.09200
N1556       N  0.90674573  0.65493780  0.27098115     0.65500
H1557       H  0.86867934  0.68566330  0.26774403     0.18400
N1558       N  0.82318351  0.64384221  0.20698655     0.76000
H1559       H  0.86023030  0.61228754  0.21223992     0.10000
C1560       C  0.90203458  0.59498519  0.26505490     0.03700
C1561       C  0.91866384  0.57490098  0.26648363    -0.05100
C1562       C  0.93257659  0.56756266  0.24562547    -0.23500
C1563       C  0.92995557  0.58063697  0.22299527     0.12900
C1564       C  0.91391147  0.60121035  0.22167430    -0.12600
N1565       N  0.88652510  0.60046431  0.28613377     0.64600
H1566       H  0.92050470  0.56469941  0.28384364     0.12400
N1567       N  0.94330327  0.57292548  0.20121516     0.61200
H1568       H  0.91215618  0.61128063  0.20423202     0.08600
O1569       O  0.80624990  0.62839930  0.21236895    -0.40300
O1570       O  0.82484084  0.65195985  0.18493882    -0.39400
O1571       O  0.92757521  0.65952681  0.26094823    -0.39400
O1572       O  0.90416820  0.65803575  0.29419821    -0.37100
O1573       O  0.93701836  0.55323789  0.18997331    -0.38000
O1574       O  0.96256837  0.58463353  0.19438535    -0.34200
O1575       O  0.86308890  0.59897959  0.28405471    -0.35600
O1576       O  0.89610727  0.60243351  0.30757863    -0.39900
C1577       C  0.74482875  0.88796553  0.35901539    -0.13600
C1578       C  0.76460450  0.88622700  0.37601682     0.16800
C1579       C  0.78245105  0.86721987  0.37299867     0.03100
C1580       C  0.77967600  0.84975145  0.35365875    -0.12100
C1581       C  0.75903413  0.85056474  0.33734110    -0.03200
C1582       C  0.74178178  0.87042829  0.33991232     0.02300
C1583       C  0.76451393  0.90300102  0.39801673     0.09200
N1584       N  0.80244102  0.86433655  0.39044358     0.65500
H1585       H  0.79316876  0.83479994  0.35217984     0.18400
N1586       N  0.71996054  0.87209860  0.32463350     0.76000
H1587       H  0.73095318  0.90248081  0.36129631     0.10000
C1588       C  0.78112007  0.92325994  0.40027279     0.03700
C1589       C  0.77841503  0.94010092  0.42014993    -0.05100
C1590       C  0.75911183  0.93724829  0.43771128    -0.23500
C1591       C  0.74305976  0.91650612  0.43583519     0.12900
C1592       C  0.74590917  0.89960941  0.41613942    -0.12600
N1593       N  0.79987876  0.92773238  0.38183935     0.64600
H1594       H  0.79092267  0.95592423  0.42147260     0.12400
N1595       N  0.72307391  0.91299496  0.45316436     0.61200
H1596       H  0.73300579  0.88412504  0.41451809     0.08600
O1597       O  0.71932985  0.88756145  0.30691161    -0.40300
O1598       O  0.70000142  0.86175677  0.33170481    -0.39400
O1599       O  0.79811544  0.85490645  0.41158743    -0.39400
O1600       O  0.82472900  0.86681814  0.38319116    -0.37100
O1601       O  0.70238294  0.92355141  0.44935207    -0.38000
O1602       O  0.72458839  0.89606979  0.46942986    -0.34200
O1603       O  0.79439492  0.93996297  0.36249219    -0.35600
O1604       O  0.82253542  0.92410062  0.38718050    -0.39900
C1605       C  0.75375946  0.59575099  0.09599013    -0.13600
C1606       C  0.73429957  0.59363643  0.11343126     0.16800
C1607       C  0.71622104  0.57477916  0.11026738     0.03100
C1608       C  0.71821853  0.55808385  0.09023777    -0.12100
C1609       C  0.73814720  0.55976855  0.07328702    -0.03200
C1610       C  0.75591111  0.57893019  0.07615265     0.02300
C1611       C  0.73316348  0.61157428  0.13449890     0.09200
N1612       N  0.69620755  0.57188525  0.12766404     0.65500
H1613       H  0.70440896  0.54346834  0.08810897     0.18400
N1614       N  0.77654045  0.58114805  0.05935798     0.76000
H1615       H  0.76749723  0.61045535  0.09791524     0.10000
C1616       C  0.75301551  0.61360732  0.15161943     0.03700
C1617       C  0.75265719  0.63223662  0.16983490    -0.05100
C1618       C  0.73298795  0.64954059  0.17135490    -0.23500
C1619       C  0.71282649  0.64716369  0.15441775     0.12900
C1620       C  0.71302652  0.62818519  0.13634337    -0.12600
N1621       N  0.77396386  0.59715147  0.15046569     0.64600
H1622       H  0.76847136  0.63363955  0.18230865     0.12400
N1623       N  0.69225745  0.66406134  0.15490220     0.61200
H1624       H  0.69779108  0.62700211  0.12307714     0.08600
O1625       O  0.79568160  0.56783440  0.06252876    -0.40300
O1626       O  0.77715006  0.59879520  0.04381909    -0.39400
O1627       O  0.67458595  0.57918887  0.12184973    -0.39400
O1628       O  0.69905394  0.55795477  0.14641352    -0.37100
O1629       O  0.67245857  0.65796931  0.16613243    -0.38000
O1630       O  0.69198320  0.68229081  0.14004849    -0.34200
O1631       O  0.79433181  0.60482413  0.14141832    -0.35600
O1632       O  0.77366529  0.57723611  0.16294987    -0.39900
C1633       C  0.85072368  0.73885948  0.39187260    -0.13600
C1634       C  0.87289773  0.72734948  0.38395983     0.16800
C1635       C  0.87513690  0.72002691  0.35881819     0.03100
C1636       C  0.85565529  0.72466660  0.34203177    -0.12100
C1637       C  0.83353440  0.73666624  0.34965497    -0.03200
C1638       C  0.83112441  0.74353486  0.37506493     0.02300
C1639       C  0.89347721  0.72283620  0.40207505     0.09200
N1640       N  0.89752194  0.70866571  0.34981308     0.65500
H1641       H  0.85823025  0.71927195  0.32270489     0.18400
N1642       N  0.80873708  0.75467149  0.38430826     0.76000
H1643       H  0.84851480  0.74405367  0.41129786     0.10000
C1644       C  0.90528129  0.74268569  0.41468468     0.03700
C1645       C  0.92503641  0.73788999  0.43112371    -0.05100
C1646       C  0.93284489  0.71344574  0.43598355    -0.23500
C1647       C  0.92060252  0.69351422  0.42402665     0.12900
C1648       C  0.90129075  0.69833584  0.40697945    -0.12600
N1649       N  0.89737892  0.76781958  0.41103770     0.64600
H1650       H  0.93403504  0.75330777  0.44061094     0.12400
N1651       N  0.92702453  0.66833005  0.42966190     0.61200
H1652       H  0.89194349  0.68285134  0.39796981     0.08600
O1653       O  0.80782694  0.77791489  0.38762725    -0.40300
O1654       O  0.79166461  0.74102368  0.39308129    -0.39400
O1655       O  0.89821350  0.68540662  0.34656895    -0.39400
O1656       O  0.91469329  0.72211198  0.34092660    -0.37100
O1657       O  0.91592957  0.65720214  0.44720595    -0.38000
O1658       O  0.94012871  0.65600116  0.41448768    -0.34200
O1659       O  0.88458672  0.77847138  0.42769721    -0.35600
O1660       O  0.90693084  0.78059773  0.39373012    -0.39900
C1661       C  0.39539628  0.91097140  0.24400908    -0.13600
C1662       C  0.39502062  0.89704296  0.26616133     0.16800
C1663       C  0.41095767  0.90385055  0.28596774     0.03100
C1664       C  0.42775596  0.92365133  0.28290436    -0.12100
C1665       C  0.42892598  0.93681642  0.26030833    -0.03200
C1666       C  0.41221911  0.93071627  0.24091166     0.02300
C1667       C  0.37940391  0.87428651  0.26716986     0.09200
N1668       N  0.41119222  0.89006908  0.30877055     0.65500
H1669       H  0.44046993  0.92833152  0.29794169     0.18400
N1670       N  0.41296196  0.94364743  0.21759357     0.76000
H1671       H  0.38318968  0.90585239  0.22869550     0.10000
C1672       C  0.35706773  0.87329223  0.28093974     0.03700
C1673       C  0.34192154  0.85201396  0.27960975    -0.05100
C1674       C  0.34813536  0.83172520  0.26403823    -0.23500
C1675       C  0.37113880  0.83257982  0.25097706     0.12900
C1676       C  0.38647245  0.85367872  0.25277713    -0.12600
N1677       N  0.34853892  0.89442865  0.29475561     0.64600
H1678       H  0.32445121  0.85208223  0.28979555     0.12400
N1679       N  0.37882757  0.81278380  0.23491795     0.61200
H1680       H  0.40372036  0.85431132  0.24218640     0.08600
O1681       O  0.39428304  0.95609893  0.21051989    -0.40300
O1682       O  0.43082590  0.93995937  0.20267788    -0.39400
O1683       O  0.42573001  0.87172823  0.31097634    -0.39400
O1684       O  0.40125216  0.89928930  0.32802562    -0.37100
O1685       O  0.37465658  0.81433430  0.21178258    -0.38000
O1686       O  0.39417320  0.79682356  0.24284694    -0.34200
O1687       O  0.33934864  0.91275986  0.28324469    -0.35600
O1688       O  0.34566392  0.89279177  0.31808286    -0.39900
C1689       C  0.57961873  0.10222685  0.25447864    -0.13600
C1690       C  0.59810393  0.09968494  0.23609165     0.16800
C1691       C  0.59737379  0.07900741  0.21988242     0.03100
C1692       C  0.57848224  0.06113697  0.22244682    -0.12100
C1693       C  0.56030985  0.06342121  0.24117893    -0.03200
C1694       C  0.56086450  0.08424711  0.25719875     0.02300
C1695       C  0.61919424  0.11755416  0.23554484     0.09200
N1696       N  0.61563772  0.07605206  0.20065794     0.65500
H1697       H  0.57802958  0.04532881  0.20987265     0.18400
N1698       N  0.54310961  0.08676470  0.27696480     0.76000
H1699       H  0.58032902  0.11772890  0.26741292     0.10000
C1700       C  0.61543505  0.14304239  0.23080273     0.03700
C1701       C  0.63569035  0.15950799  0.23168031    -0.05100
C1702       C  0.65990678  0.15114499  0.23758599    -0.23500
C1703       C  0.66364905  0.12547157  0.24200793     0.12900
C1704       C  0.64331658  0.10902839  0.24106105    -0.12600
N1705       N  0.59112609  0.15250662  0.22522788     0.64600
H1706       H  0.63220545  0.17912823  0.22850611     0.12400
N1707       N  0.68794931  0.11567300  0.24702539     0.61200
H1708       H  0.64634489  0.08944585  0.24487273     0.08600
O1709       O  0.52652827  0.10340153  0.27578823    -0.40300
O1710       O  0.54618433  0.07483769  0.29702371    -0.39400
O1711       O  0.63268440  0.06002725  0.20307196    -0.39400
O1712       O  0.61260364  0.08674736  0.17990754    -0.37100
O1713       O  0.69176386  0.10365002  0.26689712    -0.38000
O1714       O  0.70388325  0.11474081  0.22968865    -0.34200
O1715       O  0.57849135  0.16279612  0.24223077    -0.35600
O1716       O  0.58453324  0.15501185  0.20275364    -0.39900
C1717       C  0.58452561  0.90749682  0.28617246    -0.13600
C1718       C  0.59447849  0.89624390  0.26469720     0.16800
C1719       C  0.58666082  0.90467031  0.24100181     0.03100
C1720       C  0.56901406  0.92386022  0.23909675    -0.12100
C1721       C  0.55881317  0.93483283  0.26055230    -0.03200
C1722       C  0.56670369  0.92656342  0.28424102     0.02300
C1723       C  0.61200553  0.87490353  0.26717249     0.09200
N1724       N  0.59683347  0.89412614  0.21872171     0.65500
H1725       H  0.56313357  0.93017383  0.22080353     0.18400
N1726       N  0.55632064  0.93703873  0.30644278     0.76000
H1727       H  0.59018308  0.90104322  0.30448625     0.10000
C1728       C  0.63575850  0.87770488  0.27811398     0.03700
C1729       C  0.65211295  0.85734275  0.27925352    -0.05100
C1730       C  0.64541545  0.83390951  0.26943179    -0.23500
C1731       C  0.62094200  0.83086933  0.25983995     0.12900
C1732       C  0.60465590  0.85130501  0.25865982    -0.12600
N1733       N  0.64417808  0.90150032  0.28664068     0.64600
H1734       H  0.67071306  0.86039348  0.28660323     0.12400
N1735       N  0.61222126  0.80719750  0.25129582     0.61200
H1736       H  0.58610731  0.84874595  0.25096348     0.08600
O1737       O  0.56794257  0.95397286  0.31793473    -0.40300
O1738       O  0.53728865  0.92721489  0.31625875    -0.39400
O1739       O  0.58375090  0.87960401  0.20559216    -0.39400
O1740       O  0.61758522  0.90174539  0.21055970    -0.37100
O1741       O  0.60384689  0.79165949  0.26686751    -0.38000
O1742       O  0.60878464  0.80359253  0.22826580    -0.34200
O1743       O  0.64875788  0.90480185  0.30951562    -0.35600
O1744       O  0.65097080  0.91769659  0.27097466    -0.39900
C1745       C  0.60093393  0.26585104  0.91840891    -0.13600
C1746       C  0.60104904  0.28535834  0.90091639     0.16800
C1747       C  0.58376718  0.30502726  0.90372022     0.03100
C1748       C  0.56650582  0.30449496  0.92343774    -0.12100
C1749       C  0.56586423  0.28448607  0.94026602    -0.03200
C1750       C  0.58346510  0.26518921  0.93784641     0.02300
C1751       C  0.61824652  0.28352147  0.87914787     0.09200
N1752       N  0.58234744  0.32475715  0.88586874     0.65500
H1753       H  0.55286255  0.31930217  0.92508514     0.18400
N1754       N  0.58291994  0.24416077  0.95417321     0.76000
H1755       H  0.61404403  0.25060518  0.91647946     0.10000
C1756       C  0.63705078  0.30127359  0.87421130     0.03700
C1757       C  0.65382228  0.29736514  0.85436921    -0.05100
C1758       C  0.65302962  0.27547179  0.83978356    -0.23500
C1759       C  0.63373287  0.25816420  0.84461604     0.12900
C1760       C  0.61656018  0.26243713  0.86385105    -0.12600
N1761       N  0.64073809  0.32221611  0.89033894     0.64600
H1762       H  0.66858659  0.31087226  0.85149433     0.12400
N1763       N  0.63212632  0.23527166  0.83134751     0.61200
H1764       H  0.60219826  0.24864021  0.86742732     0.08600
O1765       O  0.59921952  0.24204344  0.97105164    -0.40300
O1766       O  0.56897217  0.22590112  0.94908610    -0.39400
O1767       O  0.57258513  0.32064728  0.86482172    -0.39400
O1768       O  0.58562353  0.34694784  0.89291658    -0.37100
O1769       O  0.63939803  0.21562732  0.84196708    -0.38000
O1770       O  0.61841161  0.23384747  0.81224210    -0.34200
O1771       O  0.64675656  0.31871882  0.91285199    -0.35600
O1772       O  0.64238285  0.34381434  0.88119786    -0.39900
C1773       C  0.87716369  0.36598376  0.71786852    -0.13600
C1774       C  0.87917739  0.38157873  0.73882113     0.16800
C1775       C  0.86086397  0.37993961  0.75761111     0.03100
C1776       C  0.84156461  0.36235433  0.75568019    -0.12100
C1777       C  0.83967288  0.34608978  0.73506978    -0.03200
C1778       C  0.85771016  0.34839645  0.71579307     0.02300
C1779       C  0.90024731  0.39969045  0.74074972     0.09200
N1780       N  0.86128517  0.39643516  0.77856351     0.65500
H1781       H  0.82803708  0.36139764  0.77067862     0.18400
N1782       N  0.85692239  0.33281990  0.69418398     0.76000
H1783       H  0.89098246  0.36726828  0.70313595     0.10000
C1784       C  0.92008167  0.39623863  0.75779611     0.03700
C1785       C  0.93904716  0.41425609  0.75982661    -0.05100
C1786       C  0.93894774  0.43568437  0.74480304    -0.23500
C1787       C  0.91933698  0.43886875  0.72742651     0.12900
C1788       C  0.90017770  0.42103945  0.72567262    -0.12600
N1789       N  0.92161786  0.37418281  0.77263272     0.64600
H1790       H  0.95401192  0.41147951  0.77315967     0.12400
N1791       N  0.91882469  0.45999129  0.71121611     0.61200
H1792       H  0.88514525  0.42385817  0.71242550     0.08600
O1793       O  0.87097633  0.31401706  0.69291021    -0.40300
O1794       O  0.84573573  0.34026094  0.67484378    -0.39400
O1795       O  0.85387964  0.41857798  0.77594701    -0.39400
O1796       O  0.86444060  0.38779744  0.80024065    -0.37100
O1797       O  0.93301275  0.46060594  0.69241384    -0.38000
O1798       O  0.90155732  0.47583628  0.71326873    -0.34200
O1799       O  0.93077382  0.35467691  0.76322775    -0.35600
O1800       O  0.91903677  0.37563944  0.79600556    -0.39900
C1801       C  0.75738945  0.09054349  0.60131817    -0.13600
C1802       C  0.73401632  0.10076766  0.60729488     0.16800
C1803       C  0.71255019  0.09188096  0.59489997     0.03100
C1804       C  0.71475945  0.07342566  0.57645064    -0.12100
C1805       C  0.73817063  0.06350593  0.57021548    -0.03200
C1806       C  0.75958217  0.07203385  0.58292446     0.02300
C1807       C  0.73244998  0.12119405  0.62596147     0.09200
N1808       N  0.68844287  0.10166614  0.60069338     0.65500
H1809       H  0.69818415  0.06687623  0.56686479     0.18400
N1810       N  0.78366369  0.06216944  0.57707470     0.76000
H1811       H  0.77400596  0.09719574  0.61076332     0.10000
C1812       C  0.72710036  0.11630781  0.65124193     0.03700
C1813       C  0.72629907  0.13595638  0.66851543    -0.05100
C1814       C  0.73095570  0.16061769  0.66106668    -0.23500
C1815       C  0.73541385  0.16560962  0.63561150     0.12900
C1816       C  0.73634713  0.14590924  0.61832557    -0.12600
N1817       N  0.72328090  0.09138651  0.65976673     0.64600
H1818       H  0.72296602  0.13179505  0.68804038     0.12400
N1819       N  0.73743042  0.19067104  0.62688684     0.61200
H1820       H  0.73982641  0.14992401  0.59880211     0.08600
O1821       O  0.79442164  0.06831430  0.55703303    -0.40300
O1822       O  0.79319738  0.04565827  0.59083950    -0.39400
O1823       O  0.67952826  0.11906452  0.58763325    -0.39400
O1824       O  0.67451640  0.09025190  0.61587188    -0.37100
O1825       O  0.75750829  0.19814034  0.61711747    -0.38000
O1826       O  0.71796774  0.20374505  0.62484303    -0.34200
O1827       O  0.74180465  0.07843009  0.66630465    -0.35600
O1828       O  0.70150662  0.08403000  0.66496568    -0.39900
C1829       C  0.78126533  0.38120607  0.86269293    -0.13600
C1830       C  0.76431693  0.37956020  0.88259001     0.16800
C1831       C  0.74796907  0.35899914  0.88374510     0.03100
C1832       C  0.74848808  0.34083301  0.86494572    -0.12100
C1833       C  0.76527313  0.34250173  0.84478090    -0.03200
C1834       C  0.78196338  0.36296702  0.84394485     0.02300
C1835       C  0.76313410  0.40002056  0.90128892     0.09200
N1836       N  0.73100255  0.35610099  0.90414750     0.65500
H1837       H  0.73555747  0.32534072  0.86614307     0.18400
N1838       N  0.79879559  0.36634280  0.82352401     0.76000
H1839       H  0.79362856  0.39713703  0.86133092     0.10000
C1840       C  0.78409827  0.40654539  0.91589255     0.03700
C1841       C  0.78231085  0.42582278  0.93346647    -0.05100
C1842       C  0.75989004  0.43888515  0.93664776    -0.23500
C1843       C  0.73917513  0.43293979  0.92160836     0.12900
C1844       C  0.74090763  0.41365440  0.90406734    -0.12600
N1845       N  0.80698957  0.39306495  0.91378927     0.64600
H1846       H  0.79825585  0.43020407  0.94513658     0.12400
N1847       N  0.71610099  0.44597815  0.92451093     0.61200
H1848       H  0.72481704  0.40923349  0.89262238     0.08600
O1849       O  0.82095000  0.35856878  0.82532899    -0.40300
O1850       O  0.79308122  0.38104632  0.80606421    -0.39400
O1851       O  0.70801791  0.36016123  0.90092100    -0.39400
O1852       O  0.73821683  0.34532510  0.92379326    -0.37100
O1853       O  0.70132431  0.44003554  0.94187576    -0.38000
O1854       O  0.71197900  0.46533797  0.91182812    -0.34200
O1855       O  0.82551117  0.40296430  0.90310860    -0.35600
O1856       O  0.80987702  0.37315107  0.92593792    -0.39900
C1857       C  0.59798254  0.09365147  0.74657281    -0.13600
C1858       C  0.61307178  0.09216105  0.76796877     0.16800
C1859       C  0.60731453  0.07432925  0.78644973     0.03100
C1860       C  0.58704604  0.05807578  0.78303485    -0.12100
C1861       C  0.57216437  0.05951673  0.76151536    -0.03200
C1862       C  0.57763718  0.07757486  0.74329170     0.02300
C1863       C  0.63329841  0.11082950  0.77141612     0.09200
N1864       N  0.62215098  0.07225726  0.80852326     0.65500
H1865       H  0.58298577  0.04415603  0.79711099     0.18400
N1866       N  0.56265012  0.07970103  0.72133916     0.76000
H1867       H  0.60177222  0.10768264  0.73253325     0.10000
C1868       C  0.65293586  0.11319275  0.75410084     0.03700
C1869       C  0.66927261  0.13357052  0.75549921    -0.05100
C1870       C  0.66642678  0.15218821  0.77386769    -0.23500
C1871       C  0.64737311  0.14895930  0.79193363     0.12900
C1872       C  0.63114630  0.12845680  0.79054033    -0.12600
N1873       N  0.65617559  0.09529178  0.73462536     0.64600
H1874       H  0.68382639  0.13514804  0.74152605     0.12400
N1875       N  0.64262469  0.16728435  0.81054415     0.61200
H1876       H  0.61587555  0.12704928  0.80375846     0.08600
O1877       O  0.54485015  0.09506897  0.72076210    -0.40300
O1878       O  0.56904482  0.06852246  0.70163259    -0.39400
O1879       O  0.61335808  0.07919916  0.82924550    -0.39400
O1880       O  0.64230823  0.06012270  0.80792948    -0.37100
O1881       O  0.62286119  0.17996257  0.80901887    -0.38000
O1882       O  0.65378671  0.16573822  0.83123500    -0.34200
O1883       O  0.65097077  0.10105749  0.71238777    -0.35600
O1884       O  0.66799307  0.07545293  0.73899158    -0.39900
C1885       C  0.38305541  0.27637424  0.14707891    -0.13600
C1886       C  0.37515602  0.28188117  0.12267377     0.16800
C1887       C  0.34940200  0.28400955  0.11777549     0.03100
C1888       C  0.33209213  0.27979406  0.13683939    -0.12100
C1889       C  0.33981785  0.27321489  0.16103956    -0.03200
C1890       C  0.36566153  0.27214241  0.16625631     0.02300
C1891       C  0.39371346  0.28298527  0.10207539     0.09200
N1892       N  0.34049827  0.28998913  0.09334701     0.65500
H1893       H  0.31238369  0.28081103  0.13233429     0.18400
N1894       N  0.37454203  0.26705081  0.19088880     0.76000
H1895       H  0.40280446  0.27461434  0.15111219     0.10000
C1896       C  0.41388433  0.29987460  0.10238455     0.03700
C1897       C  0.43163245  0.29936350  0.08316207    -0.05100
C1898       C  0.42985463  0.28203093  0.06359285    -0.23500
C1899       C  0.40970031  0.26511263  0.06330227     0.12900
C1900       C  0.39184464  0.26578627  0.08239925    -0.12600
N1901       N  0.41646877  0.31777178  0.12195979     0.64600
H1902       H  0.44705237  0.31244962  0.08358161     0.12400
N1903       N  0.40773686  0.24643263  0.04439181     0.61200
H1904       H  0.37686256  0.25220816  0.08230817     0.08600
O1905       O  0.37784344  0.28481148  0.20596502    -0.40300
O1906       O  0.38338478  0.24587775  0.19592720    -0.39400
O1907       O  0.33006603  0.27337741  0.08032995    -0.39400
O1908       O  0.33872977  0.31250239  0.08687349    -0.37100
O1909       O  0.42011889  0.22656827  0.04649895    -0.38000
O1910       O  0.39025013  0.24756272  0.02863628    -0.34200
O1911       O  0.43369749  0.31532529  0.13784659    -0.35600
O1912       O  0.40464305  0.33804123  0.12072986    -0.39900
C1913       C  0.09493680  0.41688492  0.28548065    -0.13600
C1914       C  0.09826276  0.40124412  0.26480753     0.16800
C1915       C  0.08176000  0.40294676  0.24439442     0.03100
C1916       C  0.06240305  0.42041646  0.24476243    -0.12100
C1917       C  0.05917043  0.43625074  0.26530413    -0.03200
C1918       C  0.07544576  0.43429002  0.28591227     0.02300
C1919       C  0.11829768  0.38238952  0.26509218     0.09200
N1920       N  0.08447983  0.38701770  0.22319171     0.65500
H1921       H  0.05010255  0.42198156  0.22876776     0.18400
N1922       N  0.07225839  0.44979364  0.30735615     0.76000
H1923       H  0.10737297  0.41540128  0.30137407     0.10000
C1924       C  0.14177635  0.38730694  0.25448694     0.03700
C1925       C  0.15935873  0.36815062  0.25238155    -0.05100
C1926       C  0.15418522  0.34397176  0.26123648    -0.23500
C1927       C  0.13111570  0.33970631  0.27351977     0.12900
C1928       C  0.11332775  0.35878538  0.27495617    -0.12600
N1929       N  0.14792687  0.41166352  0.24567251     0.64600
H1930       H  0.17704456  0.37223908  0.24343693     0.12400
N1931       N  0.12499111  0.31598660  0.28390396     0.61200
H1932       H  0.09534776  0.35504440  0.28348362     0.08600
O1933       O  0.05550966  0.44463988  0.32311092    -0.40300
O1934       O  0.08832583  0.46624642  0.31239993    -0.39400
O1935       O  0.06912134  0.36951525  0.21976459    -0.39400
O1936       O  0.09935283  0.39296788  0.20591553    -0.37100
O1937       O  0.13120958  0.31109277  0.30609647    -0.38000
O1938       O  0.10937457  0.30222627  0.27290004    -0.34200
O1939       O  0.15706141  0.42740582  0.26060189    -0.35600
O1940       O  0.14816720  0.41605102  0.22253298    -0.39900
C1941       C  0.24668449  0.08988464  0.39515474    -0.13600
C1942       C  0.26925603  0.10281657  0.39191561     0.16800
C1943       C  0.29021827  0.09592783  0.40633856     0.03100
C1944       C  0.28794034  0.07691543  0.42423849    -0.12100
C1945       C  0.26505555  0.06470731  0.42799015    -0.03200
C1946       C  0.24447199  0.07096736  0.41294562     0.02300
C1947       C  0.26930626  0.12463621  0.37489390     0.09200
N1948       N  0.31349495  0.10876440  0.40391292     0.65500
H1949       H  0.30388843  0.07206912  0.43570038     0.18400
N1950       N  0.22097962  0.05875105  0.41612940     0.76000
H1951       H  0.23047786  0.09493452  0.38413722     0.10000
C1952       C  0.28255004  0.12501567  0.35214855     0.03700
C1953       C  0.27870845  0.14459107  0.33519297    -0.05100
C1954       C  0.26157148  0.16388259  0.34027972    -0.23500
C1955       C  0.24956556  0.16407353  0.36385015     0.12900
C1956       C  0.25353449  0.14460051  0.38072613    -0.12600
N1957       N  0.29862585  0.10494310  0.34519450     0.64600
H1958       H  0.28835579  0.14394111  0.31741809     0.12400
N1959       N  0.23251385  0.18331969  0.37075054     0.61200
H1960       H  0.24346380  0.14461700  0.39829341     0.08600
O1961       O  0.21550437  0.04030016  0.40259989    -0.40300
O1962       O  0.20436442  0.06864739  0.42955805    -0.39400
O1963       O  0.31565484  0.13057837  0.41240295    -0.39400
O1964       O  0.33283220  0.09684573  0.39771656    -0.37100
O1965       O  0.20935855  0.17983069  0.36806544    -0.38000
O1966       O  0.24006954  0.20115094  0.38411531    -0.34200
O1967       O  0.28931202  0.08556836  0.33563614    -0.35600
O1968       O  0.32178514  0.10883034  0.34313587    -0.39900
C1969       C  0.20679409  0.40950765  0.08683291    -0.13600
C1970       C  0.22834152  0.39704017  0.09505599     0.16800
C1971       C  0.25176176  0.40419300  0.08521804     0.03100
C1972       C  0.25325889  0.42328717  0.06740928    -0.12100
C1973       C  0.23170402  0.43550792  0.05902334    -0.03200
C1974       C  0.20832909  0.42856689  0.06893451     0.02300
C1975       C  0.22616208  0.37587468  0.11296579     0.09200
N1976       N  0.27425685  0.39256913  0.09357949     0.65500
H1977       H  0.27134435  0.42865235  0.06007104     0.18400
N1978       N  0.18599283  0.44052581  0.06068938     0.76000
H1979       H  0.18864286  0.40403032  0.09390022     0.10000
C1980       C  0.21565183  0.37888917  0.13692247     0.03700
C1981       C  0.21548008  0.35889178  0.15381998    -0.05100
C1982       C  0.22541943  0.33551258  0.14726837    -0.23500
C1983       C  0.23399857  0.33203286  0.12250120     0.12900
C1984       C  0.23464113  0.35219734  0.10583795    -0.12600
N1985       N  0.20629184  0.40250796  0.14484919     0.64600
H1986       H  0.20860735  0.36211782  0.17257277     0.12400
N1987       N  0.24151770  0.30802510  0.11374871     0.61200
H1988       H  0.24164872  0.34929956  0.08707668     0.08600
O1989       O  0.17517346  0.43301055  0.04115862    -0.40300
O1990       O  0.17541285  0.45634057  0.07452490    -0.39400
O1991       O  0.28616324  0.37835994  0.07908023    -0.39400
O1992       O  0.28405965  0.39931663  0.11391238    -0.37100
O1993       O  0.26365982  0.30455686  0.10646694    -0.38000
O1994       O  0.22517024  0.29159367  0.10957916    -0.34200
O1995       O  0.18303391  0.40582221  0.14668159    -0.35600
O1996       O  0.22109315  0.41848735  0.15378173    -0.39900
C1997       C  0.37014549  0.13661846  0.21261064    -0.13600
C1998       C  0.37009097  0.11747503  0.23047065     0.16800
C1999       C  0.35034040  0.11628591  0.24778024     0.03100
C2000       C  0.33162515  0.13443660  0.24759822    -0.12100
C2001       C  0.33199316  0.15433241  0.23045467    -0.03200
C2002       C  0.35137349  0.15497159  0.21244059     0.02300
C2003       C  0.39139355  0.09974309  0.23205848     0.09200
N2004       N  0.34909912  0.09673848  0.26584413     0.65500
H2005       H  0.31706818  0.13320563  0.26160172     0.18400
N2006       N  0.35247443  0.17414232  0.19399623     0.76000
H2007       H  0.38521863  0.13772439  0.19915249     0.10000
C2008       C  0.39655941  0.08248800  0.21287108     0.03700
C2009       C  0.41587303  0.06505708  0.21586052    -0.05100
C2010       C  0.43038791  0.06471995  0.23767353    -0.23500
C2011       C  0.42580742  0.08246987  0.25645027     0.12900
C2012       C  0.40644539  0.09976855  0.25355834    -0.12600
N2013       N  0.38175875  0.08184341  0.19069720     0.64600
H2014       H  0.41931278  0.05146445  0.20130761     0.12400
N2015       N  0.44029795  0.08262737  0.27884604     0.61200
H2016       H  0.40293248  0.11313152  0.26830646     0.08600
O2017       O  0.34286705  0.17046095  0.17280004    -0.40300
O2018       O  0.36697214  0.19240653  0.19713948    -0.39400
O2019       O  0.35561777  0.10097980  0.28808556    -0.39400
O2020       O  0.33704169  0.07716613  0.26084639    -0.37100
O2021       O  0.45976890  0.09581403  0.28018593    -0.38000
O2022       O  0.43476808  0.06811978  0.29653404    -0.34200
O2023       O  0.38997368  0.09169678  0.17094658    -0.35600
O2024       O  0.36295616  0.06770204  0.18965324    -0.39900
C2025       C  0.89816644  0.24081030  0.41241414    -0.13600
C2026       C  0.89735036  0.22042903  0.39604885     0.16800
C2027       C  0.91304928  0.19988323  0.40037981     0.03100
C2028       C  0.92963687  0.20017773  0.42063667    -0.12100
C2029       C  0.93105551  0.22090322  0.43658745    -0.03200
C2030       C  0.91504947  0.24131814  0.43243065     0.02300
C2031       C  0.88038470  0.22134955  0.37423404     0.09200
N2032       N  0.91277980  0.17892527  0.38396420     0.65500
H2033       H  0.94201525  0.18448867  0.42353373     0.18400
N2034       N  0.91677274  0.26321232  0.44749649     0.76000
H2035       H  0.88620638  0.25674275  0.40911098     0.10000
C2036       C  0.85527438  0.21414825  0.37645356     0.03700
C2037       C  0.83888894  0.21767529  0.35643054    -0.05100
C2038       C  0.84695299  0.22855238  0.33385169    -0.23500
C2039       C  0.87250213  0.23487479  0.33137378     0.12900
C2040       C  0.88892208  0.23126103  0.35154118    -0.12600
N2041       N  0.84595717  0.20398992  0.39928724     0.64600
H2042       H  0.81946862  0.21260036  0.35902577     0.12400
N2043       N  0.88212506  0.24487476  0.30860448     0.61200
H2044       H  0.90832990  0.23670581  0.34966934     0.08600
O2045       O  0.89916222  0.26876342  0.46212481    -0.40300
O2046       O  0.93381918  0.27889900  0.44327437    -0.39400
O2047       O  0.92814523  0.17787993  0.36613225    -0.39400
O2048       O  0.90017174  0.15988583  0.38961928    -0.37100
O2049       O  0.88536687  0.26805972  0.30655558    -0.38000
O2050       O  0.89169889  0.23042626  0.29268402    -0.34200
O2051       O  0.83374352  0.21765131  0.41405401    -0.35600
O2052       O  0.84623580  0.18073739  0.40261869    -0.39900
C2053       C  0.09891628  0.24864026  0.58444202    -0.13600
C2054       C  0.10318447  0.22815109  0.60018204     0.16800
C2055       C  0.08874426  0.20638311  0.59688994     0.03100
C2056       C  0.07080358  0.20523455  0.57780519    -0.12100
C2057       C  0.06646122  0.22573923  0.56220431    -0.03200
C2058       C  0.08056556  0.24763868  0.56570405     0.02300
C2059       C  0.12244668  0.22984276  0.62020523     0.09200
N2060       N  0.09096841  0.18593300  0.61381129     0.65500
H2061       H  0.05962793  0.18853860  0.57563182     0.18400
N2062       N  0.07568436  0.26926885  0.55097739     0.76000
H2063       H  0.10963770  0.26557819  0.58696732     0.10000
C2064       C  0.14464430  0.21578585  0.61911894     0.03700
C2065       C  0.16203729  0.21714984  0.63869534    -0.05100
C2066       C  0.15823842  0.23297536  0.65930465    -0.23500
C2067       C  0.13595049  0.24708868  0.66030077     0.12900
C2068       C  0.11834329  0.24537419  0.64087566    -0.12600
N2069       N  0.15058271  0.20137173  0.59746957     0.64600
H2070       H  0.17927996  0.20671726  0.63706545     0.12400
N2071       N  0.13056594  0.26272694  0.68119981     0.61200
H2072       H  0.10123897  0.25608792  0.64203246     0.08600
O2073       O  0.05725868  0.28298992  0.55608469    -0.40300
O2074       O  0.08870237  0.27372439  0.53185454    -0.39400
O2075       O  0.08121788  0.18748978  0.63520858    -0.39400
O2076       O  0.09815735  0.16501256  0.60587489    -0.37100
O2077       O  0.13077366  0.28607478  0.67859166    -0.38000
O2078       O  0.12126214  0.25332332  0.70068823    -0.34200
O2079       O  0.15794491  0.21227934  0.57793402    -0.35600
O2080       O  0.15328979  0.17811572  0.59937057    -0.39900
C2081       C  0.86418155  0.21099753  0.62859229    -0.13600
C2082       C  0.88422152  0.22782836  0.62910392     0.16800
C2083       C  0.88475861  0.24614491  0.64802105     0.03100
C2084       C  0.86530714  0.24753404  0.66557403    -0.12100
C2085       C  0.84509723  0.23074722  0.66502542    -0.03200
C2086       C  0.84493893  0.21207969  0.64631465     0.02300
C2087       C  0.90327021  0.22692723  0.60871930     0.09200
N2088       N  0.90512242  0.26326550  0.64990678     0.65500
H2089       H  0.86607955  0.26192240  0.67973310     0.18400
N2090       N  0.82466632  0.19494603  0.64394220     0.76000
H2091       H  0.86302623  0.19725190  0.61382452     0.10000
C2092       C  0.91547053  0.20448110  0.60221126     0.03700
C2093       C  0.93171046  0.20380150  0.58165918    -0.05100
C2094       C  0.93633193  0.22523278  0.56748874    -0.23500
C2095       C  0.92441770  0.24765922  0.57397077     0.12900
C2096       C  0.90790011  0.24833671  0.59428920    -0.12600
N2097       N  0.91218860  0.18242615  0.61679237     0.64600
H2098       H  0.94117428  0.18658305  0.57701644     0.12400
N2099       N  0.92936331  0.26996455  0.56029903     0.61200
H2100       H  0.89833974  0.26558393  0.59853632     0.08600
O2101       O  0.82580901  0.17414872  0.65483414    -0.40300
O2102       O  0.80882355  0.19814657  0.62682446    -0.39400
O2103       O  0.90164446  0.28602143  0.64519569    -0.39400
O2104       O  0.92502555  0.25656622  0.66056469    -0.37100
O2105       O  0.91834782  0.27393721  0.53986121    -0.38000
O2106       O  0.94658690  0.28440562  0.56732702    -0.34200
O2107       O  0.90199302  0.16350755  0.60720277    -0.35600
O2108       O  0.92300652  0.18053065  0.63763474    -0.39900
C2109       C  0.08681510  0.19973521  0.40129205    -0.13600
C2110       C  0.09414151  0.22274557  0.39124761     0.16800
C2111       C  0.08463294  0.24488187  0.40166266     0.03100
C2112       C  0.06827110  0.24378005  0.42201884    -0.12100
C2113       C  0.06065625  0.22079646  0.43183278    -0.03200
C2114       C  0.06987416  0.19862016  0.42123638     0.02300
C2115       C  0.11148285  0.22344714  0.36970617     0.09200
N2116       N  0.09149212  0.26859859  0.39172685     0.65500
H2117       H  0.06107558  0.26090347  0.42994041     0.18400
N2118       N  0.06153477  0.17492397  0.43004739     0.76000
H2119       H  0.09379866  0.18260646  0.39319718     0.10000
C2120       C  0.13667324  0.21668247  0.37244779     0.03700
C2121       C  0.15294713  0.21850216  0.35209241    -0.05100
C2122       C  0.14461428  0.22696482  0.32863359    -0.23500
C2123       C  0.11889839  0.23227564  0.32556403     0.12900
C2124       C  0.10271683  0.23085646  0.34618639    -0.12600
N2125       N  0.14629573  0.20928838  0.39619733     0.64600
H2126       H  0.17252150  0.21442444  0.35510974     0.12400
N2127       N  0.10874773  0.23822775  0.30159112     0.61200
H2128       H  0.08310857  0.23524793  0.34379456     0.08600
O2129       O  0.04154499  0.16572332  0.42161502    -0.40300
O2130       O  0.07585882  0.16166441  0.44318282    -0.39400
O2131       O  0.07651052  0.28009941  0.37768083    -0.39400
O2132       O  0.11066818  0.27958288  0.39988201    -0.37100
O2133       O  0.10923096  0.22209059  0.28445944    -0.38000
O2134       O  0.09508626  0.25719195  0.29908872    -0.34200
O2135       O  0.15140455  0.18671083  0.40019537    -0.35600
O2136       O  0.15305909  0.22564386  0.41171272    -0.39900
loop_ 
_geom_bond_atom_site_label_1 
_geom_bond_atom_site_label_2 
_geom_bond_distance 
_geom_bond_site_symmetry_2 
_ccdc_geom_bond_type 
N1            C6   1.355   1_455  A
N1            C5   1.357       .  A
N1           H33   1.027   1_455  S
N2            C9   1.353       .  A
N2           C10   1.353       .  A
N3            C8   1.355       .  A
N3            C7   1.355   1_655  A
N3           H34   1.029       .  S
N4           C11   1.353       .  A
N4           C12   1.354       .  A
C5           C13   1.387       .  A
C5           C21   1.419       .  A
C6           C22   1.419       .  A
C6           C14   1.387       .  A
C7           C15   1.387       .  A
C7           C24   1.417       .  A
C8           C23   1.417       .  A
C8           C16   1.386       .  A
C9           C21   1.417       .  A
C9           C17   1.386       .  A
C10          C24   1.417       .  A
C10          C18   1.387       .  A
C11          C19   1.387       .  A
C11          C22   1.417       .  A
C12          C20   1.386       .  A
C12          C23   1.417       .  A
C13          C14   1.375   1_455  A
C13          H25   1.082       .  S
C14          H26   1.082       .  S
C15          C16   1.372   1_455  A
C15          H27   1.082       .  S
C16          H28   1.082       .  S
C17          C18   1.374       .  A
C17          H29   1.082       .  S
C18          H30   1.082       .  S
C19          C20   1.375       .  A
C19          H31   1.082       .  S
C20          H32   1.082       .  S
C21        C2057   1.494       .  S
C22        C2094   1.490       .  S
C23        C2029   1.493       .  S
C24        C2113   1.488       .  S
O35         Mg37   2.151       .  S
O35         Mg43   2.154       .  S
O35          C70   1.237       .  S
C36          H75   1.081       .  S
C36          O49   1.235       .  S
C36          O73   1.269       .  A
Mg37         O66   2.155       .  S
Mg37         O81   2.307       .  S
Mg37         O77   2.255       .  S
Mg37         O48   2.293       .  S
O38         Mg80   2.164       .  S
O38         Mg63   2.157       .  S
O38          C59   1.237       .  S
O39          C70   1.271       .  A
O39         Mg63   2.303       .  S
C40        C1889   1.485       .  S
C40          O42   1.275       .  A
C40          O54   1.276       .  A
O41          C69   1.270       .  A
O41         Mg43   2.297       .  S
O42         Mg74   2.282       .  S
Mg43         O49   2.141       .  S
Mg43         O57   2.271       .  S
Mg43         O45   2.304       .  S
C44        C1982   1.495       .  S
C44          O82   1.273       .  A
C44          O50   1.278       .  A
O45          C52   1.276       .  A
H46          C59   1.081       .  S
C47          H72   1.081       .  S
C47          O61   1.236       .  S
C47          O62   1.270       .  A
O48          C71   1.269       .  A
O49         Mg63   2.155       .  S
O50         Mg80   2.325       .  S
C51        C1926   1.492       .  S
C51          O64   1.274       .  A
C51          O56   1.277       .  A
C52        C2122   1.491       .  S
C52          O79   1.275       .  A
Mg53         O60   2.145       .  S
Mg53         O61   2.150       .  S
Mg53         O54   2.295       .  S
Mg53         O55   2.300       .  S
Mg53         O82   2.273       .  S
O55          C59   1.271       .  A
O56         Mg63   2.322       .  S
O57          C76   1.272       .  A
O58          C78   1.280       .  A
O58         Mg74   2.345       .  S
O60         Mg74   2.165       .  S
O60          C71   1.235       .  S
O61         Mg80   2.146       .  S
O62         Mg74   2.301       .  S
Mg63         O79   2.290       .  S
O64         Mg80   2.258       .  S
H65          C70   1.081       .  S
O66         Mg74   2.149       .  S
O66          C69   1.236       .  S
H67          C69   1.081       .  S
H68          C71   1.081       .  S
O73         Mg80   2.295       .  S
C76        C1954   1.495       .  S
C76          O81   1.275       .  A
O77          C78   1.273       .  A
C78        C2001   1.497       .  S
O83         Mg85   2.176       .  S
O83         Mg91   2.161       .  S
O83         C118   1.238       .  S
C84         H123   1.081       .  S
C84          O97   1.237       .  S
C84         O121   1.272       .  A
Mg85        O114   2.159       .  S
Mg85        O129   2.324       .  S
Mg85        O125   2.311       .  S
Mg85         O96   2.305       .  S
O86        Mg128   2.161       .  S
O86        Mg111   2.147       .  S
O86         C107   1.235       .  S
O87         C118   1.274       .  A
O87        Mg111   2.316       .  S
C88        C1833   1.492       .  S
C88          O90   1.273       .  A
C88         O102   1.275       .  A
O89         C117   1.271       .  A
O89         Mg91   2.305       .  S
O90        Mg122   2.284       .  S
Mg91         O97   2.166       .  S
Mg91        O105   2.276       .  S
Mg91         O93   2.335       .  S
C92        C1758   1.500       .  S
C92         O130   1.273       .  A
C92          O98   1.282       .  A
O93         C100   1.277       .  A
H94         C107   1.081       .  S
C95         H120   1.081       .  S
C95         O109   1.236       .  S
C95         O110   1.271       .  A
O96         C119   1.270       .  A
O97        Mg111   2.143       .  S
O98        Mg128   2.350       .  S
C99        C1870   1.500       .  S
C99         O112   1.278       .  A
C99         O104   1.276       .  A
C100       C1814   1.484       .  S
C100        O127   1.271       .  A
Mg101       O108   2.160       .  S
Mg101       O109   2.161       .  S
Mg101       O102   2.304       .  S
Mg101       O103   2.294       .  S
Mg101       O130   2.264       .  S
O103        C107   1.269       .  A
O104       Mg111   2.301       .  S
O105        C124   1.273       .  A
O106        C126   1.277       .  A
O106       Mg122   2.309       .  S
O108       Mg122   2.157       .  S
O108        C119   1.235       .  S
O109       Mg128   2.159       .  S
O110       Mg122   2.299       .  S
Mg111       O127   2.276       .  S
O112       Mg128   2.316       .  S
H113        C118   1.081       .  S
O114       Mg122   2.157       .  S
O114        C117   1.235       .  S
H115        C117   1.081       .  S
H116        C119   1.081       .  S
O121       Mg128   2.311       .  S
C124       C2085   1.496       .  S
C124        O129   1.278       .  A
O125        C126   1.277       .  A
C126       C1777   1.504       .  S
N131        C136   1.353       .  A
N131        C135   1.355       .  A
N131        H163   1.038       .  S
N132        C139   1.352       .  A
N132        C140   1.352   1_545  A
N133        C138   1.355       .  A
N133        C137   1.353       .  A
N133        H164   1.038       .  S
N134        C141   1.352   1_565  A
N134        C142   1.353       .  A
C135        C143   1.386       .  A
C135        C151   1.415       .  A
C136        C152   1.417       .  A
C136        C144   1.388       .  A
C137        C145   1.387       .  A
C137        C154   1.417       .  A
C138        C153   1.417       .  A
C138        C146   1.387       .  A
C139        C151   1.413       .  A
C139        C147   1.386       .  A
C140        C154   1.413       .  A
C140        C148   1.386       .  A
C141        C149   1.387       .  A
C141        C152   1.417       .  A
C142        C150   1.385       .  A
C142        C153   1.414       .  A
C143        C144   1.376       .  A
C143        H155   1.082       .  S
C144        H156   1.082       .  S
C145        C146   1.375       .  A
C145        H157   1.082       .  S
C146        H158   1.082       .  S
C147        C148   1.373   1_545  A
C147        H159   1.082       .  S
C148        H160   1.082       .  S
C149        C150   1.374   1_545  A
C149        H161   1.082       .  S
C150        H162   1.082       .  S
C151       C2010   1.490       .  S
C152       C1693   1.489       .  S
C153       C1721   1.492       .  S
C154       C1665   1.488       .  S
O165       Mg167   2.149       .  S
O165       Mg173   2.154       .  S
O165        C200   1.236       .  S
C166        H205   1.081       .  S
C166        O179   1.235       .  S
C166        O203   1.269       .  A
Mg167       O196   2.156       .  S
Mg167       O211   2.324       .  S
Mg167       O207   2.253       .  S
Mg167       O178   2.298       .  S
O168       Mg210   2.159       .  S
O168       Mg193   2.154       .  S
O168        C189   1.236       .  S
O169        C200   1.271       .  A
O169       Mg193   2.302       .  S
C170       C1525   1.486       .  S
C170        O172   1.275       .  A
C170        O184   1.275       .  A
O171        C199   1.270       .  A
O171       Mg173   2.301       .  S
O172       Mg204   2.285       .  S
Mg173       O179   2.143       .  S
Mg173       O187   2.264       .  S
Mg173       O175   2.296       .  S
C174       C1730   1.496       .  S
C174        O212   1.273       .  A
C174        O180   1.277       .  A
O175        C182   1.275       .  A
H176        C189   1.081       .  S
C177        H202   1.081       .  S
C177        O191   1.236       .  S
C177        O192   1.270       .  A
O178        C201   1.270       .  A
O179       Mg193   2.161       .  S
O180       Mg210   2.312       .  S
C181       C1581   1.494       .  S
C181        O194   1.273       .  A
C181        O186   1.279       .  A
C182       C1637   1.494       .  S
C182        O209   1.275       .  A
Mg183       O190   2.155       .  S
Mg183       O191   2.157       .  S
Mg183       O184   2.294       .  S
Mg183       O185   2.299       .  S
Mg183       O212   2.279       .  S
O185        C189   1.270       .  A
O186       Mg193   2.325       .  S
O187        C206   1.273       .  A
O188        C208   1.279       .  A
O188       Mg204   2.336       .  S
O190       Mg204   2.167       .  S
O190        C201   1.235       .  S
O191       Mg210   2.150       .  S
O192       Mg204   2.298       .  S
Mg193       O209   2.292       .  S
O194       Mg210   2.265       .  S
H195        C200   1.081       .  S
O196       Mg204   2.157       .  S
O196        C199   1.236       .  S
H197        C199   1.081       .  S
H198        C201   1.081       .  S
O203       Mg210   2.294       .  S
C206       C1553   1.497       .  S
C206        O211   1.276       .  A
O207        C208   1.273       .  A
C208       C1618   1.493       .  S
N213        C218   1.356       .  A
N213        C217   1.355       .  A
N213        H245   1.039       .  S
N214        C221   1.353       .  A
N214        C222   1.354   1_655  A
N215        C220   1.354       .  A
N215        C219   1.353       .  A
N215        H246   1.039       .  S
N216        C223   1.351   1_455  A
N216        C224   1.352       .  A
C217        C225   1.388       .  A
C217        C233   1.419       .  A
C218        C234   1.417       .  A
C218        C226   1.386       .  A
C219        C227   1.387       .  A
C219        C236   1.415       .  A
C220        C235   1.415       .  A
C220        C228   1.386       .  A
C221        C233   1.417       .  A
C221        C229   1.387       .  A
C222        C236   1.417       .  A
C222        C230   1.385       .  A
C223        C231   1.386       .  A
C223        C234   1.413       .  A
C224        C232   1.386       .  A
C224        C235   1.413       .  A
C225        C226   1.371       .  A
C225        H237   1.082       .  S
C226        H238   1.082       .  S
C227        C228   1.373       .  A
C227        H239   1.082       .  S
C228        H240   1.082       .  S
C229        C230   1.377   1_655  A
C229        H241   1.082       .  S
C230        H242   1.082       .  S
C231        C232   1.375   1_655  A
C231        H243   1.082       .  S
C232        H244   1.082       .  S
C233       C1646   1.491       .  S
C234       C1469   1.491       .  S
C235       C1497   1.491       .  S
C236       C1441   1.493       .  S
O247       Mg249   2.160       .  S
O247       Mg255   2.159       .  S
O247        C282   1.236       .  S
C248        H287   1.081       .  S
C248        O261   1.236       .  S
C248        O285   1.269       .  A
Mg249       O278   2.165       .  S
Mg249       O293   2.314       .  S
Mg249       O289   2.273       .  S
Mg249       O260   2.298       .  S
O250       Mg292   2.166       .  S
O250       Mg275   2.147       .  S
O250        C271   1.236       .  S
O251        C282   1.270       .  A
O251       Mg275   2.302       .  S
C252       C1301   1.500       .  S
C252        O254   1.276       .  A
C252        O266   1.277       .  A
O253        C281   1.271       .  A
O253       Mg255   2.304       .  S
O254       Mg286   2.287       .  S
Mg255       O261   2.145       .  S
Mg255       O269   2.268       .  S
Mg255       O257   2.321       .  S
C256       C1413   1.493       .  S
C256        O294   1.274       .  A
C256        O262   1.276       .  A
O257        C264   1.278       .  A
H258        C271   1.081       .  S
C259        H284   1.081       .  S
C259        O273   1.235       .  S
C259        O274   1.269       .  A
O260        C283   1.269       .  A
O261       Mg275   2.156       .  S
O262       Mg292   2.318       .  S
C263       C1357   1.485       .  S
C263        O276   1.275       .  A
C263        O268   1.276       .  A
C264       C1506   1.497       .  S
C264        O291   1.273       .  A
Mg265       O272   2.149       .  S
Mg265       O273   2.159       .  S
Mg265       O266   2.319       .  S
Mg265       O267   2.295       .  S
Mg265       O294   2.257       .  S
O267        C271   1.270       .  A
O268       Mg275   2.302       .  S
O269        C288   1.272       .  A
O270        C290   1.278       .  A
O270       Mg286   2.318       .  S
O272       Mg286   2.160       .  S
O272        C283   1.235       .  S
O273       Mg292   2.160       .  S
O274       Mg286   2.299       .  S
Mg275       O291   2.279       .  S
O276       Mg292   2.285       .  S
H277        C282   1.081       .  S
O278       Mg286   2.160       .  S
O278        C281   1.236       .  S
H279        C281   1.081       .  S
H280        C283   1.081       .  S
O285       Mg292   2.295       .  S
C288       C1329   1.497       .  S
C288        O293   1.277       .  A
O289        C290   1.273       .  A
C290       C1385   1.490       .  S
N295        C300   1.355       .  A
N295        C299   1.352       .  A
N295        H327   1.040       .  S
N296        C303   1.352   1_545  A
N296        C304   1.353       .  A
N297        C302   1.354       .  A
N297        C301   1.356       .  A
N297        H328   1.038       .  S
N298        C305   1.354       .  A
N298        C306   1.352   1_565  A
C299        C307   1.387       .  A
C299        C315   1.414       .  A
C300        C316   1.416       .  A
C300        C308   1.387       .  A
C301        C309   1.386       .  A
C301        C318   1.419       .  A
C302        C317   1.419       .  A
C302        C310   1.387       .  A
C303        C315   1.413       .  A
C303        C311   1.386       .  A
C304        C318   1.415       .  A
C304        C312   1.386       .  A
C305        C313   1.386       .  A
C305        C316   1.416       .  A
C306        C314   1.387       .  A
C306        C317   1.415       .  A
C307        C308   1.374       .  A
C307        H319   1.083       .  S
C308        H320   1.082       .  S
C309        C310   1.378       .  A
C309        H321   1.082       .  S
C310        H322   1.082       .  S
C311        C312   1.375   1_565  A
C311        H323   1.082       .  S
C312        H324   1.082       .  S
C313        C314   1.373   1_565  A
C313        H325   1.082       .  S
C314        H326   1.082       .  S
C315       C1422   1.485       .  S
C316       C1273   1.499       .  S
C317       C1861   1.489       .  S
C318       C1254   1.495       .  S
N329        C334   1.354       .  A
N329        C333   1.352   1_556  A
N329        H361   1.034       .  S
N330        C337   1.353       .  A
N330        C338   1.354       .  A
N331        C336   1.355       .  A
N331        C335   1.357   1_556  A
N331        H362   1.036       .  S
N332        C339   1.354       .  A
N332        C340   1.351       .  A
C333        C341   1.388       .  A
C333        C349   1.416       .  A
C334        C350   1.415       .  A
C334        C342   1.386       .  A
C335        C343   1.387       .  A
C335        C352   1.419       .  A
C336        C351   1.420       .  A
C336        C344   1.388       .  A
C337        C349   1.418       .  A
C337        C345   1.387       .  A
C338        C352   1.417       .  A
C338        C346   1.386       .  A
C339        C347   1.386       .  A
C339        C350   1.415       .  A
C340        C348   1.387       .  A
C340        C351   1.415       .  A
C341        C342   1.374   1_554  A
C341        H353   1.082       .  S
C342        H354   1.082       .  S
C343        C344   1.375   1_554  A
C343        H355   1.082       .  S
C344        H356   1.082       .  S
C345        C346   1.374       .  A
C345        H357   1.082       .  S
C346        H358   1.082       .  S
C347        C348   1.373       .  A
C347        H359   1.082       .  S
C348        H360   1.082       .  S
C349       C1217   1.486       .  S
C350       C1394   1.490       .  S
C351       C1189   1.489       .  S
C352       C1973   1.494       .  S
N363        C368   1.353       .  A
N363        C367   1.353   1_554  A
N363        H395   1.036       .  S
N364        C371   1.351       .  A
N364        C372   1.350       .  A
N365        C370   1.353       .  A
N365        C369   1.354   1_554  A
N365        H396   1.038       .  S
N366        C373   1.352       .  A
N366        C374   1.352       .  A
C367        C375   1.387       .  A
C367        C383   1.416       .  A
C368        C384   1.416       .  A
C368        C376   1.387       .  A
C369        C377   1.387       .  A
C369        C386   1.415       .  A
C370        C385   1.415       .  A
C370        C378   1.387       .  A
C371        C383   1.413       .  A
C371        C379   1.386       .  A
C372        C386   1.414       .  A
C372        C380   1.387       .  A
C373        C381   1.386       .  A
C373        C384   1.414       .  A
C374        C382   1.386       .  A
C374        C385   1.414       .  A
C375        C376   1.374   1_556  A
C375        H387   1.082       .  S
C376        H388   1.082       .  S
C377        C378   1.376   1_556  A
C377        H389   1.082       .  S
C378        H390   1.082       .  S
C379        C380   1.374       .  A
C379        H391   1.082       .  S
C380        H392   1.082       .  S
C381        C382   1.371       .  A
C381        H393   1.082       .  S
C382        H394   1.082       .  S
C383       C1842   1.487       .  S
C384       C1133   1.484       .  S
C385       C1609   1.489       .  S
C386       C1161   1.486       .  S
O397       Mg399   2.138       .  S
O397       Mg405   2.154       .  S
O397        C432   1.235       .  S
C398        H437   1.081       .  S
C398        O411   1.235       .  S
C398        O435   1.268       .  A
Mg399       O428   2.160       .  S
Mg399       O443   2.323       .  S
Mg399       O439   2.241       .  S
Mg399       O410   2.302       .  S
O400       Mg442   2.168       .  S
O400       Mg425   2.158       .  S
O400        C421   1.236       .  S
O401        C432   1.268       .  A
O401       Mg425   2.294       .  S
C402       C1478   1.490       .  S
C402        O404   1.275       .  A
C402        O416   1.277       .  A
O403        C431   1.271       .  A
O403       Mg405   2.302       .  S
O404       Mg436   2.276       .  S
Mg405       O411   2.143       .  S
Mg405       O419   2.266       .  S
Mg405       O407   2.310       .  S
C406       C1077   1.491       .  S
C406        O444   1.274       .  A
C406        O412   1.276       .  A
O407        C414   1.275       .  A
H408        C421   1.081       .  S
C409        H434   1.081       .  S
C409        O423   1.236       .  S
C409        O424   1.271       .  A
O410        C433   1.270       .  A
O411       Mg425   2.161       .  S
O412       Mg442   2.308       .  S
C413       C1170   1.483       .  S
C413        O426   1.274       .  A
C413        O418   1.275       .  A
C414       C1058   1.491       .  S
C414        O441   1.275       .  A
Mg415       O422   2.161       .  S
Mg415       O423   2.159       .  S
Mg415       O416   2.315       .  S
Mg415       O417   2.299       .  S
Mg415       O444   2.286       .  S
O417        C421   1.270       .  A
O418       Mg425   2.302       .  S
O419        C438   1.272       .  A
O420        C440   1.278       .  A
O420       Mg436   2.343       .  S
O422       Mg436   2.160       .  S
O422        C433   1.235       .  S
O423       Mg442   2.155       .  S
O424       Mg436   2.305       .  S
Mg425       O441   2.278       .  S
O426       Mg442   2.273       .  S
H427        C432   1.081       .  S
O428       Mg436   2.165       .  S
O428        C431   1.236       .  S
H429        C431   1.081       .  S
H430        C433   1.081       .  S
O435       Mg442   2.292       .  S
C438       C1282   1.492       .  S
C438        O443   1.277       .  A
O439        C440   1.272       .  A
C440       C1105   1.493       .  S
N445        C450   1.354       .  A
N445        C449   1.355       .  A
N445        H477   1.039       .  S
N446        C453   1.353   1_545  A
N446        C454   1.353       .  A
N447        C452   1.355       .  A
N447        C451   1.354       .  A
N447        H478   1.037       .  S
N448        C455   1.353       .  A
N448        C456   1.354   1_565  A
C449        C457   1.387       .  A
C449        C465   1.417       .  A
C450        C466   1.417       .  A
C450        C458   1.387       .  A
C451        C459   1.387       .  A
C451        C468   1.418       .  A
C452        C467   1.418       .  A
C452        C460   1.387       .  A
C453        C465   1.417       .  A
C453        C461   1.387       .  A
C454        C468   1.415       .  A
C454        C462   1.386       .  A
C455        C463   1.387       .  A
C455        C466   1.417       .  A
C456        C464   1.386       .  A
C456        C467   1.416       .  A
C457        C458   1.375       .  A
C457        H469   1.082       .  S
C458        H470   1.082       .  S
C459        C460   1.376       .  A
C459        H471   1.082       .  S
C460        H472   1.082       .  S
C461        C462   1.373   1_565  A
C461        H473   1.082       .  S
C462        H474   1.082       .  S
C463        C464   1.374   1_565  A
C463        H475   1.082       .  S
C464        H476   1.082       .  S
C465       C1590   1.494       .  S
C466       C1114   1.492       .  S
C467       C1805   1.492       .  S
C468       C1021   1.489       .  S
O479       Mg481   2.132       .  S
O479       Mg487   2.151       .  S
O479        C514   1.235       .  S
C480        H519   1.081       .  S
C480        O493   1.235       .  S
C480        O517   1.269       .  A
Mg481       O510   2.157       .  S
Mg481       O525   2.297       .  S
Mg481       O521   2.251       .  S
Mg481       O492   2.296       .  S
O482       Mg524   2.161       .  S
O482       Mg507   2.144       .  S
O482        C503   1.235       .  S
O483        C514   1.268       .  A
O483       Mg507   2.289       .  S
C484       C2038   1.493       .  S
C484        O486   1.276       .  A
C484        O498   1.275       .  A
O485        C513   1.272       .  A
O485       Mg487   2.304       .  S
O486       Mg518   2.299       .  S
Mg487       O493   2.140       .  S
Mg487       O501   2.268       .  S
Mg487       O489   2.310       .  S
C488       C1030   1.495       .  S
C488        O526   1.273       .  A
C488        O494   1.276       .  A
O489        C496   1.276       .  A
H490        C503   1.081       .  S
C491        H516   1.081       .  S
C491        O505   1.237       .  S
C491        O506   1.272       .  A
O492        C515   1.269       .  A
O493       Mg507   2.159       .  S
O494       Mg524   2.313       .  S
C495       C1702   1.486       .  S
C495        O508   1.275       .  A
C495        O500   1.275       .  A
C496        C965   1.490       .  S
C496        O523   1.274       .  A
Mg497       O504   2.147       .  S
Mg497       O505   2.157       .  S
Mg497       O498   2.289       .  S
Mg497       O499   2.294       .  S
Mg497       O526   2.271       .  S
O499        C503   1.269       .  A
O500       Mg507   2.293       .  S
O501        C520   1.272       .  A
O502        C522   1.281       .  A
O502       Mg518   2.343       .  S
O504       Mg518   2.158       .  S
O504        C515   1.235       .  S
O505       Mg524   2.159       .  S
O506       Mg518   2.310       .  S
Mg507       O523   2.271       .  S
O508       Mg524   2.281       .  S
H509        C514   1.081       .  S
O510       Mg518   2.157       .  S
O510        C513   1.238       .  S
H511        C513   1.081       .  S
H512        C515   1.081       .  S
O517       Mg524   2.294       .  S
C520       C1142   1.484       .  S
C520        O525   1.275       .  A
O521        C522   1.270       .  A
C522        C993   1.497       .  S
N527        C532   1.353       .  A
N527        C531   1.355   1_655  A
N527        H559   1.031       .  S
N528        C535   1.353       .  A
N528        C536   1.351       .  A
N529        C534   1.357       .  A
N529        C533   1.355   1_655  A
N529        H560   1.020       .  S
N530        C537   1.352       .  A
N530        C538   1.353       .  A
C531        C539   1.385       .  A
C531        C547   1.414       .  A
C532        C548   1.416       .  A
C532        C540   1.388       .  A
C533        C541   1.387       .  A
C533        C550   1.422       .  A
C534        C549   1.423       .  A
C534        C542   1.387       .  A
C535        C547   1.412       .  A
C535        C543   1.385       .  A
C536        C550   1.419       .  A
C536        C544   1.389       .  A
C537        C545   1.386       .  A
C537        C548   1.415       .  A
C538        C546   1.387       .  A
C538        C549   1.419       .  A
C539        C540   1.373   1_455  A
C539        H551   1.082       .  S
C540        H552   1.082       .  S
C541        C542   1.377   1_455  A
C541        H553   1.082       .  S
C542        H554   1.082       .  S
C543        C544   1.371       .  A
C543        H555   1.082       .  S
C544        H556   1.082       .  S
C545        C546   1.374       .  A
C545        H557   1.082       .  S
C546        H558   1.082       .  S
C547        C946   1.488       .  S
C548       C1562   1.486       .  S
C549       C1002   1.494       .  S
C550       C1917   1.487       .  S
O561       Mg563   2.144       .  S
O561       Mg569   2.155       .  S
O561        C596   1.235       .  S
C562        H601   1.081       .  S
C562        O575   1.236       .  S
C562        O599   1.271       .  A
Mg563       O592   2.162       .  S
Mg563       O607   2.296       .  S
Mg563       O603   2.250       .  S
Mg563       O574   2.292       .  S
O564       Mg606   2.157       .  S
O564       Mg589   2.154       .  S
O564        C585   1.237       .  S
O565        C596   1.269       .  A
O565       Mg589   2.298       .  S
C566       C1450   1.497       .  S
C566        O568   1.277       .  A
C566        O580   1.277       .  A
O567        C595   1.271       .  A
O567       Mg569   2.301       .  S
O568       Mg600   2.295       .  S
Mg569       O575   2.153       .  S
Mg569       O583   2.287       .  S
Mg569       O571   2.305       .  S
C570        C937   1.490       .  S
C570        O608   1.274       .  A
C570        O576   1.276       .  A
O571        C578   1.277       .  A
H572        C585   1.081       .  S
C573        H598   1.081       .  S
C573        O587   1.236       .  S
C573        O588   1.271       .  A
O574        C597   1.269       .  A
O575       Mg589   2.163       .  S
O576       Mg606   2.310       .  S
C577       C1226   1.496       .  S
C577        O590   1.272       .  A
C577        O582   1.276       .  A
C578        C881   1.492       .  S
C578        O605   1.273       .  A
Mg579       O586   2.143       .  S
Mg579       O587   2.158       .  S
Mg579       O580   2.317       .  S
Mg579       O581   2.300       .  S
Mg579       O608   2.276       .  S
O581        C585   1.271       .  A
O582       Mg589   2.311       .  S
O583        C602   1.274       .  A
O584        C604   1.280       .  A
O584       Mg600   2.332       .  S
O586       Mg600   2.156       .  S
O586        C597   1.235       .  S
O587       Mg606   2.154       .  S
O588       Mg600   2.302       .  S
Mg589       O605   2.276       .  S
O590       Mg606   2.270       .  S
H591        C596   1.081       .  S
O592       Mg600   2.159       .  S
O592        C595   1.236       .  S
H593        C595   1.081       .  S
H594        C597   1.081       .  S
O599       Mg606   2.302       .  S
C602       C1674   1.496       .  S
C602        O607   1.275       .  A
O603        C604   1.270       .  A
C604        C909   1.492       .  S
N609        C614   1.354       .  A
N609        C613   1.353       .  A
N609        H641   1.039       .  S
N610        C617   1.352       .  A
N610        C618   1.353   1_545  A
N611        C616   1.354       .  A
N611        C615   1.355       .  A
N611        H642   1.039       .  S
N612        C619   1.352       .  A
N612        C620   1.351   1_545  A
C613        C621   1.388       .  A
C613        C629   1.417       .  A
C614        C630   1.416       .  A
C614        C622   1.387       .  A
C615        C623   1.387       .  A
C615        C632   1.417       .  A
C616        C631   1.417       .  A
C616        C624   1.387       .  A
C617        C629   1.414       .  A
C617        C625   1.386       .  A
C618        C632   1.415       .  A
C618        C626   1.386       .  A
C619        C627   1.385       .  A
C619        C630   1.411       .  A
C620        C628   1.387       .  A
C620        C631   1.413       .  A
C621        C622   1.377       .  A
C621        H633   1.082       .  S
C622        H634   1.082       .  S
C623        C624   1.375       .  A
C623        H635   1.082       .  S
C624        H636   1.082       .  S
C625        C626   1.373   1_545  A
C625        H637   1.082       .  S
C626        H638   1.082       .  S
C627        C628   1.373   1_545  A
C627        H639   1.082       .  S
C628        H640   1.082       .  S
C629        C853   1.487       .  S
C630       C1945   1.488       .  S
C631        C918   1.488       .  S
C632       C1366   1.492       .  S
O643       Mg645   2.156       .  S
O643       Mg651   2.165       .  S
O643        C678   1.236       .  S
C644        H683   1.081       .  S
C644        O657   1.235       .  S
C644        O681   1.269       .  A
Mg645       O674   2.154       .  S
Mg645       O689   2.314       .  S
Mg645       O685   2.272       .  S
Mg645       O656   2.307       .  S
O646       Mg688   2.155       .  S
O646       Mg671   2.147       .  S
O646        C667   1.236       .  S
O647        C678   1.270       .  A
O647       Mg671   2.297       .  S
C648        C862   1.494       .  S
C648        O650   1.276       .  A
C648        O662   1.276       .  A
O649        C677   1.270       .  A
O649       Mg651   2.301       .  S
O650       Mg682   2.299       .  S
Mg651       O657   2.152       .  S
Mg651       O665   2.265       .  S
Mg651       O653   2.307       .  S
C652       C2066   1.494       .  S
C652        O690   1.275       .  A
C652        O658   1.277       .  A
O653        C660   1.274       .  A
H654        C667   1.081       .  S
C655        H680   1.081       .  S
C655        O669   1.238       .  S
C655        O670   1.274       .  A
O656        C679   1.271       .  A
O657       Mg671   2.162       .  S
O658       Mg688   2.329       .  S
C659        C834   1.498       .  S
C659        O672   1.277       .  A
C659        O664   1.275       .  A
C660       C1198   1.469       .  S
C660        O687   1.270       .  A
Mg661       O668   2.174       .  S
Mg661       O669   2.157       .  S
Mg661       O662   2.308       .  S
Mg661       O663   2.301       .  S
Mg661       O690   2.286       .  S
O663        C667   1.270       .  A
O664       Mg671   2.303       .  S
O665        C684   1.273       .  A
O666        C686   1.284       .  A
O666       Mg682   2.370       .  S
O668       Mg682   2.157       .  S
O668        C679   1.235       .  S
O669       Mg688   2.181       .  S
O670       Mg682   2.320       .  S
Mg671       O687   2.262       .  S
O672       Mg688   2.308       .  S
H673        C678   1.081       .  S
O674       Mg682   2.158       .  S
O674        C677   1.236       .  S
H675        C677   1.081       .  S
H676        C679   1.081       .  S
O681       Mg688   2.301       .  S
C684        C797   1.495       .  S
C684        O689   1.275       .  A
O685        C686   1.273       .  A
C686       C1245   1.495       .  S
N691        C696   1.355       .  A
N691        C695   1.357   1_455  A
N691        H723   1.038       .  S
N692        C699   1.354       .  A
N692        C700   1.353       .  A
N693        C698   1.356       .  A
N693        C697   1.354   1_455  A
N693        H724   1.039       .  S
N694        C701   1.352       .  A
N694        C702   1.353       .  A
C695        C703   1.387       .  A
C695        C711   1.422       .  A
C696        C712   1.419       .  A
C696        C704   1.387       .  A
C697        C705   1.388       .  A
C697        C714   1.419       .  A
C698        C713   1.418       .  A
C698        C706   1.386       .  A
C699        C711   1.418       .  A
C699        C707   1.386       .  A
C700        C714   1.416       .  A
C700        C708   1.386       .  A
C701        C709   1.387       .  A
C701        C712   1.415       .  A
C702        C710   1.385       .  A
C702        C713   1.414       .  A
C703        C704   1.379   1_655  A
C703        H715   1.082       .  S
C704        H716   1.082       .  S
C705        C706   1.377   1_655  A
C705        H717   1.082       .  S
C706        H718   1.082       .  S
C707        C708   1.374       .  A
C707        H719   1.082       .  S
C708        H720   1.082       .  S
C709        C710   1.373       .  A
C709        H721   1.082       .  S
C710        H722   1.082       .  S
C711       C1786   1.502       .  S
C712        C825   1.491       .  S
C713       C1338   1.495       .  S
C714       C1086   1.494       .  S
N725        C730   1.353       .  A
N725        C729   1.354       .  A
N725        H757   1.039       .  S
N726        C733   1.351       .  A
N726        C734   1.351   1_554  A
N727        C732   1.354       .  A
N727        C731   1.353       .  A
N727        H758   1.040       .  S
N728        C735   1.352   1_556  A
N728        C736   1.353       .  A
C729        C737   1.386       .  A
C729        C745   1.414       .  A
C730        C746   1.416       .  A
C730        C738   1.388       .  A
C731        C739   1.386       .  A
C731        C748   1.414       .  A
C732        C747   1.416       .  A
C732        C740   1.387       .  A
C733        C745   1.412       .  A
C733        C741   1.386       .  A
C734        C748   1.411       .  A
C734        C742   1.386       .  A
C735        C743   1.386       .  A
C735        C746   1.416       .  A
C736        C744   1.386       .  A
C736        C747   1.415       .  A
C737        C738   1.375       .  A
C737        H749   1.082       .  S
C738        H750   1.082       .  S
C739        C740   1.376       .  A
C739        H751   1.082       .  S
C740        H752   1.082       .  S
C741        C742   1.375   1_554  A
C741        H753   1.082       .  S
C742        H754   1.082       .  S
C743        C744   1.376   1_554  A
C743        H755   1.082       .  S
C744        H756   1.082       .  S
C745        C974   1.487       .  S
C746       C1898   1.492       .  S
C747        C806   1.495       .  S
C748       C1749   1.489       .  S
N759        C764   1.353       .  A
N759        C763   1.356   1_556  A
N759        H791   1.040       .  S
N760        C767   1.350       .  A
N760        C768   1.350       .  A
N761        C766   1.353   1_554  A
N761        C765   1.354       .  A
N761        H792   1.038       .  S
N762        C769   1.353       .  A
N762        C770   1.354       .  A
C763        C771   1.386       .  A
C763        C779   1.416       .  A
C764        C780   1.416       .  A
C764        C772   1.388       .  A
C765        C773   1.387       .  A
C765        C782   1.415       .  A
C766        C781   1.416       .  A
C766        C774   1.388       .  A
C767        C779   1.411       .  A
C767        C775   1.386       .  A
C768        C782   1.409       .  A
C768        C776   1.386       .  A
C769        C777   1.386       .  A
C769        C780   1.416       .  A
C770        C778   1.386       .  A
C770        C781   1.417       .  A
C771        C772   1.374   1_554  A
C771        H783   1.082       .  S
C772        H784   1.082       .  S
C773        C774   1.375   1_554  A
C773        H785   1.082       .  S
C774        H786   1.082       .  S
C775        C776   1.372       .  A
C775        H787   1.082       .  S
C776        H788   1.082       .  S
C777        C778   1.377       .  A
C777        H789   1.082       .  S
C778        H790   1.082       .  S
C779        C890   1.490       .  S
C780       C1310   1.489       .  S
C781       C1049   1.492       .  S
C782       C1534   1.482       .  S
C793        C794   1.402       .  A
C793        C798   1.403       .  A
C793        H803   1.084       .  S
C794        C795   1.408       .  A
C794        C799   1.487       .  S
C795        C796   1.402       .  A
C795        N800   1.429       .  S
C796        C797   1.410       .  A
C796        H801   1.083       .  S
C797        C798   1.418       .  A
C798        N802   1.429       .  S
C799        C804   1.411       .  A
C799        C808   1.403       .  A
N800        O815   1.262       .  A
N800        O816   1.262       .  A
N802        O813   1.262       .  A
N802        O814   1.262       .  A
C804        C805   1.402       .  A
C804        N809   1.429       .  S
C805        C806   1.404       .  A
C805        H810   1.084       .  S
C806        C807   1.414       .  A
C807        C808   1.402       .  A
C807        N811   1.429       .  S
C808        H812   1.084       .  S
N809        O819   1.262       .  A
N809        O820   1.262       .  A
N811        O817   1.262       .  A
N811        O818   1.262       .  A
C821        C822   1.406       .  A
C821        C826   1.405       .  A
C821        H831   1.084       .  S
C822        C823   1.412       .  A
C822        C827   1.490       .  S
C823        C824   1.402       .  A
C823        N828   1.429       .  S
C824        C825   1.401       .  A
C824        H829   1.084       .  S
C825        C826   1.409       .  A
C826        N830   1.429       .  S
C827        C832   1.409       .  A
C827        C836   1.401       .  A
N828        O843   1.262       .  A
N828        O844   1.262       .  A
N830        O841   1.262       .  A
N830        O842   1.262       .  A
C832        C833   1.407       .  A
C832        N837   1.429       .  S
C833        C834   1.409       .  A
C833        H838   1.083       .  S
C834        C835   1.419       .  A
C835        C836   1.403       .  A
C835        N839   1.429       .  S
C836        H840   1.084       .  S
N837        O847   1.262       .  A
N837        O848   1.262       .  A
N839        O845   1.262       .  A
N839        O846   1.262       .  A
C849        C850   1.406       .  A
C849        C854   1.403       .  A
C849        H859   1.084       .  S
C850        C851   1.412       .  A
C850        C855   1.488       .  S
C851        C852   1.400       .  A
C851        N856   1.429       .  S
C852        C853   1.400       .  A
C852        H857   1.084       .  S
C853        C854   1.408       .  A
C854        N858   1.429       .  S
C855        C860   1.410       .  A
C855        C864   1.400       .  A
N856        O871   1.262       .  A
N856        O872   1.262       .  A
N858        O869   1.262       .  A
N858        O870   1.262       .  A
C860        C861   1.405       .  A
C860        N865   1.429       .  S
C861        C862   1.408       .  A
C861        H866   1.084       .  S
C862        C863   1.414       .  A
C863        C864   1.400       .  A
C863        N867   1.423       .  S
C864        H868   1.084       .  S
N865        O875   1.262       .  A
N865        O876   1.262       .  A
N867        O873   1.261       .  A
N867        O874   1.262       .  A
C877        C878   1.400       .  A
C877        C882   1.402       .  A
C877        H887   1.084       .  S
C878        C879   1.406       .  A
C878        C883   1.480       .  S
C879        C880   1.400       .  A
C879        N884   1.429       .  S
C880        C881   1.409       .  A
C880        H885   1.083       .  S
C881        C882   1.418       .  A
C882        N886   1.428       .  S
C883        C888   1.409       .  A
C883        C892   1.403       .  A
N884        O899   1.262       .  A
N884        O900   1.262       .  A
N886        O897   1.262       .  A
N886        O898   1.262       .  A
C888        C889   1.399       .  A
C888        N893   1.429       .  S
C889        C890   1.404       .  A
C889        H894   1.084       .  S
C890        C891   1.410       .  A
C891        C892   1.402       .  A
C891        N895   1.428       .  S
C892        H896   1.084       .  S
N893        O903   1.262       .  A
N893        O904   1.262       .  A
N895        O901   1.262       .  A
N895        O902   1.262       .  A
C905        C906   1.398       .  A
C905        C910   1.400       .  A
C905        H915   1.084       .  S
C906        C907   1.407       .  A
C906        C911   1.478       .  S
C907        C908   1.403       .  A
C907        N912   1.429       .  S
C908        C909   1.409       .  A
C908        H913   1.083       .  S
C909        C910   1.419       .  A
C910        N914   1.429       .  S
C911        C916   1.409       .  A
C911        C920   1.401       .  A
N912        O927   1.262       .  A
N912        O928   1.262       .  A
N914        O925   1.262       .  A
N914        O926   1.262       .  A
C916        C917   1.400       .  A
C916        N921   1.429       .  S
C917        C918   1.402       .  A
C917        H922   1.084       .  S
C918        C919   1.411       .  A
C919        C920   1.401       .  A
C919        N923   1.429       .  S
C920        H924   1.084       .  S
N921        O931   1.262       .  A
N921        O932   1.261       .  A
N923        O929   1.262       .  A
N923        O930   1.262       .  A
C933        C934   1.401       .  A
C933        C938   1.402       .  A
C933        H943   1.084       .  S
C934        C935   1.407       .  A
C934        C939   1.482       .  S
C935        C936   1.402       .  A
C935        N940   1.429       .  S
C936        C937   1.408       .  A
C936        H941   1.083       .  S
C937        C938   1.414       .  A
C938        N942   1.430       .  S
C939        C944   1.410       .  A
C939        C948   1.404       .  A
N940        O955   1.262       .  A
N940        O956   1.262       .  A
N942        O953   1.262       .  A
N942        O954   1.262       .  A
C944        C945   1.400       .  A
C944        N949   1.428       .  S
C945        C946   1.400       .  A
C945        H950   1.084       .  S
C946        C947   1.409       .  A
C947        C948   1.404       .  A
C947        N951   1.429       .  S
C948        H952   1.084       .  S
N949        O959   1.262       .  A
N949        O960   1.262       .  A
N951        O957   1.262       .  A
N951        O958   1.262       .  A
C961        C962   1.402       .  A
C961        C966   1.403       .  A
C961        H971   1.084       .  S
C962        C963   1.410       .  A
C962        C967   1.486       .  S
C963        C964   1.400       .  A
C963        N968   1.429       .  S
C964        C965   1.407       .  A
C964        H969   1.084       .  S
C965        C966   1.417       .  A
C966        N970   1.429       .  S
C967        C972   1.412       .  A
C967        C976   1.404       .  A
N968        O983   1.262       .  A
N968        O984   1.262       .  A
N970        O981   1.262       .  A
N970        O982   1.261       .  A
C972        C973   1.403       .  A
C972        N977   1.429       .  S
C973        C974   1.403       .  A
C973        H978   1.084       .  S
C974        C975   1.407       .  A
C975        C976   1.399       .  A
C975        N979   1.428       .  S
C976        H980   1.083       .  S
N977        O987   1.262       .  A
N977        O988   1.262       .  A
N979        O985   1.262       .  A
N979        O986   1.262       .  A
C989        C990   1.399       .  A
C989        C994   1.402       .  A
C989        H999   1.084       .  S
C990        C991   1.407       .  A
C990        C995   1.484       .  S
C991        C992   1.404       .  A
C991        N996   1.428       .  S
C992        C993   1.409       .  A
C992        H997   1.083       .  S
C993        C994   1.421       .  A
C994        N998   1.430       .  S
C995       C1000   1.409       .  A
C995       C1004   1.403       .  A
N996       O1011   1.262       .  A
N996       O1012   1.262       .  A
N998       O1009   1.262       .  A
N998       O1010   1.262       .  A
C1000      C1001   1.402       .  A
C1000      N1005   1.429       .  S
C1001      C1002   1.402       .  A
C1001      H1006   1.084       .  S
C1002      C1003   1.412       .  A
C1003      C1004   1.405       .  A
C1003      N1007   1.429       .  S
C1004      H1008   1.084       .  S
N1005      O1015   1.262       .  A
N1005      O1016   1.262       .  A
N1007      O1013   1.262       .  A
N1007      O1014   1.261       .  A
C1017      C1018   1.405       .  A
C1017      C1022   1.401       .  A
C1017      H1027   1.084       .  S
C1018      C1019   1.412       .  A
C1018      C1023   1.488       .  S
C1019      C1020   1.403       .  A
C1019      N1024   1.428       .  S
C1020      C1021   1.402       .  A
C1020      H1025   1.084       .  S
C1021      C1022   1.408       .  A
C1022      N1026   1.429       .  S
C1023      C1028   1.410       .  A
C1023      C1032   1.401       .  A
N1024      O1039   1.262       .  A
N1024      O1040   1.261       .  A
N1026      O1037   1.262       .  A
N1026      O1038   1.262       .  A
C1028      C1029   1.403       .  A
C1028      N1033   1.429       .  S
C1029      C1030   1.408       .  A
C1029      H1034   1.084       .  S
C1030      C1031   1.418       .  A
C1031      C1032   1.402       .  A
C1031      N1035   1.428       .  S
C1032      H1036   1.084       .  S
N1033      O1043   1.262       .  A
N1033      O1044   1.262       .  A
N1035      O1041   1.262       .  A
N1035      O1042   1.262       .  A
C1045      C1046   1.406       .  A
C1045      C1050   1.403       .  A
C1045      H1055   1.083       .  S
C1046      C1047   1.413       .  A
C1046      C1051   1.492       .  S
C1047      C1048   1.404       .  A
C1047      N1052   1.429       .  S
C1048      C1049   1.403       .  A
C1048      H1053   1.084       .  S
C1049      C1050   1.408       .  A
C1050      N1054   1.428       .  S
C1051      C1056   1.412       .  A
C1051      C1060   1.404       .  A
N1052      O1067   1.262       .  A
N1052      O1068   1.262       .  A
N1054      O1065   1.262       .  A
N1054      O1066   1.262       .  A
C1056      C1057   1.402       .  A
C1056      N1061   1.429       .  S
C1057      C1058   1.406       .  A
C1057      H1062   1.084       .  S
C1058      C1059   1.416       .  A
C1059      C1060   1.404       .  A
C1059      N1063   1.429       .  S
C1060      H1064   1.083       .  S
N1061      O1071   1.262       .  A
N1061      O1072   1.262       .  A
N1063      O1069   1.262       .  A
N1063      O1070   1.262       .  A
C1073      C1074   1.402       .  A
C1073      C1078   1.404       .  A
C1073      H1083   1.084       .  S
C1074      C1075   1.408       .  A
C1074      C1079   1.483       .  S
C1075      C1076   1.402       .  A
C1075      N1080   1.429       .  S
C1076      C1077   1.409       .  A
C1076      H1081   1.084       .  S
C1077      C1078   1.414       .  A
C1078      N1082   1.428       .  S
C1079      C1084   1.410       .  A
C1079      C1088   1.403       .  A
N1080      O1095   1.262       .  A
N1080      O1096   1.262       .  A
N1082      O1093   1.262       .  A
N1082      O1094   1.262       .  A
C1084      C1085   1.401       .  A
C1084      N1089   1.430       .  S
C1085      C1086   1.403       .  A
C1085      H1090   1.084       .  S
C1086      C1087   1.412       .  A
C1087      C1088   1.404       .  A
C1087      N1091   1.429       .  S
C1088      H1092   1.084       .  S
N1089      O1099   1.262       .  A
N1089      O1100   1.262       .  A
N1091      O1097   1.262       .  A
N1091      O1098   1.262       .  A
C1101      C1102   1.405       .  A
C1101      C1106   1.409       .  A
C1101      H1111   1.084       .  S
C1102      C1103   1.405       .  A
C1102      C1107   1.484       .  S
C1103      C1104   1.395       .  A
C1103      N1108   1.429       .  S
C1104      C1105   1.407       .  A
C1104      H1109   1.081       .  S
C1105      C1106   1.416       .  A
C1106      N1110   1.428       .  S
C1107      C1112   1.410       .  A
C1107      C1116   1.404       .  A
N1108      O1123   1.262       .  A
N1108      O1124   1.262       .  A
N1110      O1121   1.262       .  A
N1110      O1122   1.262       .  A
C1112      C1113   1.403       .  A
C1112      N1117   1.429       .  S
C1113      C1114   1.404       .  A
C1113      H1118   1.084       .  S
C1114      C1115   1.409       .  A
C1115      C1116   1.401       .  A
C1115      N1119   1.429       .  S
C1116      H1120   1.084       .  S
N1117      O1127   1.262       .  A
N1117      O1128   1.262       .  A
N1119      O1125   1.262       .  A
N1119      O1126   1.262       .  A
C1129      C1130   1.403       .  A
C1129      C1134   1.400       .  A
C1129      H1139   1.084       .  S
C1130      C1131   1.410       .  A
C1130      C1135   1.479       .  S
C1131      C1132   1.399       .  A
C1131      N1136   1.430       .  S
C1132      C1133   1.401       .  A
C1132      H1137   1.084       .  S
C1133      C1134   1.409       .  A
C1134      N1138   1.429       .  S
C1135      C1140   1.409       .  A
C1135      C1144   1.402       .  A
N1136      O1151   1.262       .  A
N1136      O1152   1.262       .  A
N1138      O1149   1.262       .  A
N1138      O1150   1.262       .  A
C1140      C1141   1.398       .  A
C1140      N1145   1.431       .  S
C1141      C1142   1.406       .  A
C1141      H1146   1.084       .  S
C1142      C1143   1.413       .  A
C1143      C1144   1.402       .  A
C1143      N1147   1.429       .  S
C1144      H1148   1.084       .  S
N1145      O1155   1.262       .  A
N1145      O1156   1.262       .  A
N1147      O1153   1.261       .  A
N1147      O1154   1.262       .  A
C1157      C1158   1.404       .  A
C1157      C1162   1.402       .  A
C1157      H1167   1.083       .  S
C1158      C1159   1.412       .  A
C1158      C1163   1.485       .  S
C1159      C1160   1.401       .  A
C1159      N1164   1.429       .  S
C1160      C1161   1.400       .  A
C1160      H1165   1.084       .  S
C1161      C1162   1.408       .  A
C1162      N1166   1.429       .  S
C1163      C1168   1.409       .  A
C1163      C1172   1.402       .  A
N1164      O1179   1.262       .  A
N1164      O1180   1.262       .  A
N1166      O1177   1.262       .  A
N1166      O1178   1.262       .  A
C1168      C1169   1.402       .  A
C1168      N1173   1.428       .  S
C1169      C1170   1.404       .  A
C1169      H1174   1.084       .  S
C1170      C1171   1.415       .  A
C1171      C1172   1.401       .  A
C1171      N1175   1.430       .  S
C1172      H1176   1.084       .  S
N1173      O1183   1.262       .  A
N1173      O1184   1.262       .  A
N1175      O1181   1.262       .  A
N1175      O1182   1.262       .  A
C1185      C1186   1.407       .  A
C1185      C1190   1.402       .  A
C1185      H1195   1.083       .  S
C1186      C1187   1.415       .  A
C1186      C1191   1.492       .  S
C1187      C1188   1.399       .  A
C1187      N1192   1.429       .  S
C1188      C1189   1.401       .  A
C1188      H1193   1.084       .  S
C1189      C1190   1.408       .  A
C1190      N1194   1.429       .  S
C1191      C1196   1.415       .  A
C1191      C1200   1.406       .  A
N1192      O1207   1.262       .  A
N1192      O1208   1.262       .  A
N1194      O1205   1.262       .  A
N1194      O1206   1.262       .  A
C1196      C1197   1.402       .  A
C1196      N1201   1.429       .  S
C1197      C1198   1.398       .  A
C1197      H1202   1.084       .  S
C1198      C1199   1.407       .  A
C1199      C1200   1.400       .  A
C1199      N1203   1.429       .  S
C1200      H1204   1.083       .  S
N1201      O1211   1.262       .  A
N1201      O1212   1.262       .  A
N1203      O1209   1.261       .  A
N1203      O1210   1.262       .  A
C1213      C1214   1.406       .  A
C1213      C1218   1.398       .  A
C1213      H1223   1.084       .  S
C1214      C1215   1.413       .  A
C1214      C1219   1.486       .  S
C1215      C1216   1.403       .  A
C1215      N1220   1.429       .  S
C1216      C1217   1.402       .  A
C1216      H1221   1.084       .  S
C1217      C1218   1.405       .  A
C1218      N1222   1.429       .  S
C1219      C1224   1.411       .  A
C1219      C1228   1.401       .  A
N1220      O1235   1.262       .  A
N1220      O1236   1.262       .  A
N1222      O1233   1.262       .  A
N1222      O1234   1.262       .  A
C1224      C1225   1.405       .  A
C1224      N1229   1.431       .  S
C1225      C1226   1.411       .  A
C1225      H1230   1.083       .  S
C1226      C1227   1.417       .  A
C1227      C1228   1.399       .  A
C1227      N1231   1.428       .  S
C1228      H1232   1.084       .  S
N1229      O1239   1.262       .  A
N1229      O1240   1.262       .  A
N1231      O1237   1.262       .  A
N1231      O1238   1.262       .  A
C1241      C1242   1.401       .  A
C1241      C1246   1.405       .  A
C1241      H1251   1.084       .  S
C1242      C1243   1.408       .  A
C1242      C1247   1.488       .  S
C1243      C1244   1.407       .  A
C1243      N1248   1.428       .  S
C1244      C1245   1.409       .  A
C1244      H1249   1.083       .  S
C1245      C1246   1.410       .  A
C1246      N1250   1.423       .  S
C1247      C1252   1.410       .  A
C1247      C1256   1.403       .  A
N1248      O1263   1.262       .  A
N1248      O1264   1.262       .  A
N1250      O1261   1.262       .  A
N1250      O1262   1.258       .  A
C1252      C1253   1.406       .  A
C1252      N1257   1.428       .  S
C1253      C1254   1.405       .  A
C1253      H1258   1.084       .  S
C1254      C1255   1.409       .  A
C1255      C1256   1.404       .  A
C1255      N1259   1.428       .  S
C1256      H1260   1.084       .  S
N1257      O1267   1.262       .  A
N1257      O1268   1.262       .  A
N1259      O1265   1.262       .  A
N1259      O1266   1.262       .  A
C1269      C1270   1.402       .  A
C1269      C1274   1.405       .  A
C1269      H1279   1.084       .  S
C1270      C1271   1.410       .  A
C1270      C1275   1.485       .  S
C1271      C1272   1.401       .  A
C1271      N1276   1.429       .  S
C1272      C1273   1.404       .  A
C1272      H1277   1.084       .  S
C1273      C1274   1.414       .  A
C1274      N1278   1.429       .  S
C1275      C1280   1.407       .  A
C1275      C1284   1.400       .  A
N1276      O1291   1.262       .  A
N1276      O1292   1.262       .  A
N1278      O1289   1.262       .  A
N1278      O1290   1.262       .  A
C1280      C1281   1.404       .  A
C1280      N1285   1.428       .  S
C1281      C1282   1.408       .  A
C1281      H1286   1.084       .  S
C1282      C1283   1.417       .  A
C1283      C1284   1.402       .  A
C1283      N1287   1.428       .  S
C1284      H1288   1.084       .  S
N1285      O1295   1.262       .  A
N1285      O1296   1.262       .  A
N1287      O1293   1.261       .  A
N1287      O1294   1.262       .  A
C1297      C1298   1.399       .  A
C1297      C1302   1.403       .  A
C1297      H1307   1.084       .  S
C1298      C1299   1.408       .  A
C1298      C1303   1.486       .  S
C1299      C1300   1.405       .  A
C1299      N1304   1.430       .  S
C1300      C1301   1.410       .  A
C1300      H1305   1.083       .  S
C1301      C1302   1.421       .  A
C1302      N1306   1.429       .  S
C1303      C1308   1.412       .  A
C1303      C1312   1.403       .  A
N1304      O1319   1.262       .  A
N1304      O1320   1.262       .  A
N1306      O1317   1.262       .  A
N1306      O1318   1.262       .  A
C1308      C1309   1.403       .  A
C1308      N1313   1.429       .  S
C1309      C1310   1.402       .  A
C1309      H1314   1.084       .  S
C1310      C1311   1.409       .  A
C1311      C1312   1.402       .  A
C1311      N1315   1.428       .  S
C1312      H1316   1.084       .  S
N1313      O1323   1.262       .  A
N1313      O1324   1.262       .  A
N1315      O1321   1.262       .  A
N1315      O1322   1.262       .  A
C1325      C1326   1.400       .  A
C1325      C1330   1.401       .  A
C1325      H1335   1.084       .  S
C1326      C1327   1.409       .  A
C1326      C1331   1.486       .  S
C1327      C1328   1.405       .  A
C1327      N1332   1.429       .  S
C1328      C1329   1.411       .  A
C1328      H1333   1.084       .  S
C1329      C1330   1.418       .  A
C1330      N1334   1.428       .  S
C1331      C1336   1.410       .  A
C1331      C1340   1.403       .  A
N1332      O1347   1.262       .  A
N1332      O1348   1.262       .  A
N1334      O1345   1.262       .  A
N1334      O1346   1.262       .  A
C1336      C1337   1.405       .  A
C1336      N1341   1.429       .  S
C1337      C1338   1.405       .  A
C1337      H1342   1.084       .  S
C1338      C1339   1.411       .  A
C1339      C1340   1.402       .  A
C1339      N1343   1.429       .  S
C1340      H1344   1.084       .  S
N1341      O1351   1.262       .  A
N1341      O1352   1.262       .  A
N1343      O1349   1.262       .  A
N1343      O1350   1.262       .  A
C1353      C1354   1.405       .  A
C1353      C1358   1.405       .  A
C1353      H1363   1.084       .  S
C1354      C1355   1.409       .  A
C1354      C1359   1.488       .  S
C1355      C1356   1.400       .  A
C1355      N1360   1.429       .  S
C1356      C1357   1.405       .  A
C1356      H1361   1.084       .  S
C1357      C1358   1.411       .  A
C1358      N1362   1.428       .  S
C1359      C1364   1.410       .  A
C1359      C1368   1.405       .  A
N1360      O1375   1.262       .  A
N1360      O1376   1.262       .  A
N1362      O1373   1.262       .  A
N1362      O1374   1.261       .  A
C1364      C1365   1.402       .  A
C1364      N1369   1.428       .  S
C1365      C1366   1.403       .  A
C1365      H1370   1.084       .  S
C1366      C1367   1.409       .  A
C1367      C1368   1.402       .  A
C1367      N1371   1.429       .  S
C1368      H1372   1.084       .  S
N1369      O1379   1.262       .  A
N1369      O1380   1.262       .  A
N1371      O1377   1.262       .  A
N1371      O1378   1.262       .  A
C1381      C1382   1.401       .  A
C1381      C1386   1.402       .  A
C1381      H1391   1.084       .  S
C1382      C1383   1.408       .  A
C1382      C1387   1.482       .  S
C1383      C1384   1.404       .  A
C1383      N1388   1.429       .  S
C1384      C1385   1.409       .  A
C1384      H1389   1.084       .  S
C1385      C1386   1.414       .  A
C1386      N1390   1.428       .  S
C1387      C1392   1.410       .  A
C1387      C1396   1.403       .  A
N1388      O1403   1.262       .  A
N1388      O1404   1.262       .  A
N1390      O1401   1.262       .  A
N1390      O1402   1.262       .  A
C1392      C1393   1.402       .  A
C1392      N1397   1.429       .  S
C1393      C1394   1.402       .  A
C1393      H1398   1.084       .  S
C1394      C1395   1.409       .  A
C1395      C1396   1.403       .  A
C1395      N1399   1.428       .  S
C1396      H1400   1.084       .  S
N1397      O1407   1.262       .  A
N1397      O1408   1.262       .  A
N1399      O1405   1.262       .  A
N1399      O1406   1.262       .  A
C1409      C1410   1.402       .  A
C1409      C1414   1.404       .  A
C1409      H1419   1.084       .  S
C1410      C1411   1.408       .  A
C1410      C1415   1.484       .  S
C1411      C1412   1.397       .  A
C1411      N1416   1.430       .  S
C1412      C1413   1.408       .  A
C1412      H1417   1.083       .  S
C1413      C1414   1.418       .  A
C1414      N1418   1.429       .  S
C1415      C1420   1.410       .  A
C1415      C1424   1.405       .  A
N1416      O1431   1.262       .  A
N1416      O1432   1.262       .  A
N1418      O1429   1.262       .  A
N1418      O1430   1.262       .  A
C1420      C1421   1.401       .  A
C1420      N1425   1.429       .  S
C1421      C1422   1.403       .  A
C1421      H1426   1.084       .  S
C1422      C1423   1.407       .  A
C1423      C1424   1.399       .  A
C1423      N1427   1.428       .  S
C1424      H1428   1.084       .  S
N1425      O1435   1.262       .  A
N1425      O1436   1.262       .  A
N1427      O1433   1.262       .  A
N1427      O1434   1.262       .  A
C1437      C1438   1.404       .  A
C1437      C1442   1.402       .  A
C1437      H1447   1.084       .  S
C1438      C1439   1.415       .  A
C1438      C1443   1.491       .  S
C1439      C1440   1.406       .  A
C1439      N1444   1.431       .  S
C1440      C1441   1.402       .  A
C1440      H1445   1.084       .  S
C1441      C1442   1.409       .  A
C1442      N1446   1.428       .  S
C1443      C1448   1.412       .  A
C1443      C1452   1.401       .  A
N1444      O1459   1.262       .  A
N1444      O1460   1.262       .  A
N1446      O1457   1.262       .  A
N1446      O1458   1.262       .  A
C1448      C1449   1.406       .  A
C1448      N1453   1.431       .  S
C1449      C1450   1.409       .  A
C1449      H1454   1.083       .  S
C1450      C1451   1.417       .  A
C1451      C1452   1.402       .  A
C1451      N1455   1.428       .  S
C1452      H1456   1.084       .  S
N1453      O1463   1.262       .  A
N1453      O1464   1.262       .  A
N1455      O1461   1.262       .  A
N1455      O1462   1.261       .  A
C1465      C1466   1.405       .  A
C1465      C1470   1.401       .  A
C1465      H1475   1.084       .  S
C1466      C1467   1.415       .  A
C1466      C1471   1.490       .  S
C1467      C1468   1.403       .  A
C1467      N1472   1.431       .  S
C1468      C1469   1.402       .  A
C1468      H1473   1.084       .  S
C1469      C1470   1.408       .  A
C1470      N1474   1.428       .  S
C1471      C1476   1.413       .  A
C1471      C1480   1.404       .  A
N1472      O1487   1.262       .  A
N1472      O1488   1.262       .  A
N1474      O1485   1.262       .  A
N1474      O1486   1.262       .  A
C1476      C1477   1.404       .  A
C1476      N1481   1.432       .  S
C1477      C1478   1.407       .  A
C1477      H1482   1.083       .  S
C1478      C1479   1.414       .  A
C1479      C1480   1.402       .  A
C1479      N1483   1.429       .  S
C1480      H1484   1.084       .  S
N1481      O1491   1.262       .  A
N1481      O1492   1.262       .  A
N1483      O1489   1.262       .  A
N1483      O1490   1.262       .  A
C1493      C1494   1.404       .  A
C1493      C1498   1.404       .  A
C1493      H1503   1.084       .  S
C1494      C1495   1.412       .  A
C1494      C1499   1.487       .  S
C1495      C1496   1.403       .  A
C1495      N1500   1.429       .  S
C1496      C1497   1.402       .  A
C1496      H1501   1.084       .  S
C1497      C1498   1.410       .  A
C1498      N1502   1.430       .  S
C1499      C1504   1.408       .  A
C1499      C1508   1.401       .  A
N1500      O1515   1.262       .  A
N1500      O1516   1.262       .  A
N1502      O1513   1.262       .  A
N1502      O1514   1.262       .  A
C1504      C1505   1.403       .  A
C1504      N1509   1.429       .  S
C1505      C1506   1.409       .  A
C1505      H1510   1.082       .  S
C1506      C1507   1.419       .  A
C1507      C1508   1.404       .  A
C1507      N1511   1.429       .  S
C1508      H1512   1.084       .  S
N1509      O1519   1.262       .  A
N1509      O1520   1.262       .  A
N1511      O1517   1.262       .  A
N1511      O1518   1.262       .  A
C1521      C1522   1.400       .  A
C1521      C1526   1.401       .  A
C1521      H1531   1.084       .  S
C1522      C1523   1.405       .  A
C1522      C1527   1.476       .  S
C1523      C1524   1.401       .  A
C1523      N1528   1.429       .  S
C1524      C1525   1.409       .  A
C1524      H1529   1.084       .  S
C1525      C1526   1.413       .  A
C1526      N1530   1.428       .  S
C1527      C1532   1.408       .  A
C1527      C1536   1.402       .  A
N1528      O1543   1.262       .  A
N1528      O1544   1.262       .  A
N1530      O1541   1.262       .  A
N1530      O1542   1.262       .  A
C1532      C1533   1.400       .  A
C1532      N1537   1.428       .  S
C1533      C1534   1.401       .  A
C1533      H1538   1.084       .  S
C1534      C1535   1.408       .  A
C1535      C1536   1.400       .  A
C1535      N1539   1.429       .  S
C1536      H1540   1.084       .  S
N1537      O1547   1.261       .  A
N1537      O1548   1.262       .  A
N1539      O1545   1.262       .  A
N1539      O1546   1.262       .  A
C1549      C1550   1.400       .  A
C1549      C1554   1.403       .  A
C1549      H1559   1.084       .  S
C1550      C1551   1.409       .  A
C1550      C1555   1.486       .  S
C1551      C1552   1.402       .  A
C1551      N1556   1.431       .  S
C1552      C1553   1.410       .  A
C1552      H1557   1.083       .  S
C1553      C1554   1.418       .  A
C1554      N1558   1.427       .  S
C1555      C1560   1.415       .  A
C1555      C1564   1.405       .  A
N1556      O1571   1.262       .  A
N1556      O1572   1.262       .  A
N1558      O1569   1.262       .  A
N1558      O1570   1.262       .  A
C1560      C1561   1.401       .  A
C1560      N1565   1.432       .  S
C1561      C1562   1.399       .  A
C1561      H1566   1.084       .  S
C1562      C1563   1.408       .  A
C1563      C1564   1.402       .  A
C1563      N1567   1.429       .  S
C1564      H1568   1.084       .  S
N1565      O1575   1.262       .  A
N1565      O1576   1.262       .  A
N1567      O1573   1.262       .  A
N1567      O1574   1.262       .  A
C1577      C1578   1.400       .  A
C1577      C1582   1.400       .  A
C1577      H1587   1.084       .  S
C1578      C1579   1.408       .  A
C1578      C1583   1.483       .  S
C1579      C1580   1.405       .  A
C1579      N1584   1.429       .  S
C1580      C1581   1.410       .  A
C1580      H1585   1.084       .  S
C1581      C1582   1.418       .  A
C1582      N1586   1.429       .  S
C1583      C1588   1.410       .  A
C1583      C1592   1.402       .  A
N1584      O1599   1.262       .  A
N1584      O1600   1.262       .  A
N1586      O1597   1.262       .  A
N1586      O1598   1.262       .  A
C1588      C1589   1.404       .  A
C1588      N1593   1.428       .  S
C1589      C1590   1.406       .  A
C1589      H1594   1.084       .  S
C1590      C1591   1.410       .  A
C1591      C1592   1.400       .  A
C1591      N1595   1.429       .  S
C1592      H1596   1.084       .  S
N1593      O1603   1.262       .  A
N1593      O1604   1.262       .  A
N1595      O1601   1.262       .  A
N1595      O1602   1.262       .  A
C1605      C1606   1.404       .  A
C1605      C1610   1.399       .  A
C1605      H1615   1.084       .  S
C1606      C1607   1.410       .  A
C1606      C1611   1.485       .  S
C1607      C1608   1.402       .  A
C1607      N1612   1.428       .  S
C1608      C1609   1.404       .  A
C1608      H1613   1.084       .  S
C1609      C1610   1.409       .  A
C1610      N1614   1.429       .  S
C1611      C1616   1.408       .  A
C1611      C1620   1.404       .  A
N1612      O1627   1.262       .  A
N1612      O1628   1.262       .  A
N1614      O1625   1.262       .  A
N1614      O1626   1.262       .  A
C1616      C1617   1.397       .  A
C1616      N1621   1.430       .  S
C1617      C1618   1.408       .  A
C1617      H1622   1.081       .  S
C1618      C1619   1.416       .  A
C1619      C1620   1.406       .  A
C1619      N1623   1.428       .  S
C1620      H1624   1.084       .  S
N1621      O1631   1.262       .  A
N1621      O1632   1.262       .  A
N1623      O1629   1.262       .  A
N1623      O1630   1.262       .  A
C1633      C1634   1.404       .  A
C1633      C1638   1.405       .  A
C1633      H1643   1.083       .  S
C1634      C1635   1.408       .  A
C1634      C1639   1.488       .  S
C1635      C1636   1.400       .  A
C1635      N1640   1.429       .  S
C1636      C1637   1.409       .  A
C1636      H1641   1.084       .  S
C1637      C1638   1.416       .  A
C1638      N1642   1.429       .  S
C1639      C1644   1.411       .  A
C1639      C1648   1.406       .  A
N1640      O1655   1.262       .  A
N1640      O1656   1.262       .  A
N1642      O1653   1.262       .  A
N1642      O1654   1.262       .  A
C1644      C1645   1.400       .  A
C1644      N1649   1.428       .  S
C1645      C1646   1.403       .  A
C1645      H1650   1.084       .  S
C1646      C1647   1.408       .  A
C1647      C1648   1.404       .  A
C1647      N1651   1.428       .  S
C1648      H1652   1.083       .  S
N1649      O1659   1.262       .  A
N1649      O1660   1.261       .  A
N1651      O1657   1.262       .  A
N1651      O1658   1.262       .  A
C1661      C1662   1.403       .  A
C1661      C1666   1.400       .  A
C1661      H1671   1.084       .  S
C1662      C1663   1.409       .  A
C1662      C1667   1.481       .  S
C1663      C1664   1.402       .  A
C1663      N1668   1.428       .  S
C1664      C1665   1.403       .  A
C1664      H1669   1.084       .  S
C1665      C1666   1.409       .  A
C1666      N1670   1.430       .  S
C1667      C1672   1.406       .  A
C1667      C1676   1.401       .  A
N1668      O1683   1.262       .  A
N1668      O1684   1.262       .  A
N1670      O1681   1.262       .  A
N1670      O1682   1.262       .  A
C1672      C1673   1.402       .  A
C1672      N1677   1.430       .  S
C1673      C1674   1.412       .  A
C1673      H1678   1.083       .  S
C1674      C1675   1.417       .  A
C1675      C1676   1.402       .  A
C1675      N1679   1.428       .  S
C1676      H1680   1.084       .  S
N1677      O1687   1.262       .  A
N1677      O1688   1.262       .  A
N1679      O1685   1.262       .  A
N1679      O1686   1.262       .  A
C1689      C1690   1.403       .  A
C1689      C1694   1.400       .  A
C1689      H1699   1.084       .  S
C1690      C1691   1.410       .  A
C1690      C1695   1.481       .  S
C1691      C1692   1.400       .  A
C1691      N1696   1.429       .  S
C1692      C1693   1.403       .  A
C1692      H1697   1.084       .  S
C1693      C1694   1.410       .  A
C1694      N1698   1.429       .  S
C1695      C1700   1.407       .  A
C1695      C1704   1.402       .  A
N1696      O1711   1.262       .  A
N1696      O1712   1.262       .  A
N1698      O1709   1.262       .  A
N1698      O1710   1.262       .  A
C1700      C1701   1.399       .  A
C1700      N1705   1.429       .  S
C1701      C1702   1.409       .  A
C1701      H1706   1.084       .  S
C1702      C1703   1.414       .  A
C1703      C1704   1.402       .  A
C1703      N1707   1.429       .  S
C1704      H1708   1.084       .  S
N1705      O1715   1.262       .  A
N1705      O1716   1.262       .  A
N1707      O1713   1.262       .  A
N1707      O1714   1.262       .  A
C1717      C1718   1.404       .  A
C1717      C1722   1.404       .  A
C1717      H1727   1.084       .  S
C1718      C1719   1.411       .  A
C1718      C1723   1.488       .  S
C1719      C1720   1.403       .  A
C1719      N1724   1.429       .  S
C1720      C1721   1.402       .  A
C1720      H1725   1.084       .  S
C1721      C1722   1.409       .  A
C1722      N1726   1.428       .  S
C1723      C1728   1.408       .  A
C1723      C1732   1.403       .  A
N1724      O1739   1.262       .  A
N1724      O1740   1.262       .  A
N1726      O1737   1.262       .  A
N1726      O1738   1.262       .  A
C1728      C1729   1.403       .  A
C1728      N1733   1.429       .  S
C1729      C1730   1.410       .  A
C1729      H1734   1.083       .  S
C1730      C1731   1.417       .  A
C1731      C1732   1.404       .  A
C1731      N1735   1.429       .  S
C1732      H1736   1.084       .  S
N1733      O1743   1.262       .  A
N1733      O1744   1.262       .  A
N1735      O1741   1.262       .  A
N1735      O1742   1.262       .  A
C1745      C1746   1.406       .  A
C1745      C1750   1.400       .  A
C1745      H1755   1.084       .  S
C1746      C1747   1.413       .  A
C1746      C1751   1.489       .  S
C1747      C1748   1.403       .  A
C1747      N1752   1.429       .  S
C1748      C1749   1.403       .  A
C1748      H1753   1.084       .  S
C1749      C1750   1.407       .  A
C1750      N1754   1.429       .  S
C1751      C1756   1.411       .  A
C1751      C1760   1.400       .  A
N1752      O1767   1.262       .  A
N1752      O1768   1.262       .  A
N1754      O1765   1.262       .  A
N1754      O1766   1.262       .  A
C1756      C1757   1.407       .  A
C1756      N1761   1.431       .  S
C1757      C1758   1.412       .  A
C1757      H1762   1.083       .  S
C1758      C1759   1.413       .  A
C1759      C1760   1.400       .  A
C1759      N1763   1.422       .  S
C1760      H1764   1.084       .  S
N1761      O1771   1.262       .  A
N1761      O1772   1.262       .  A
N1763      O1769   1.261       .  A
N1763      O1770   1.262       .  A
C1773      C1774   1.404       .  A
C1773      C1778   1.410       .  A
C1773      H1783   1.084       .  S
C1774      C1775   1.408       .  A
C1774      C1779   1.492       .  S
C1775      C1776   1.403       .  A
C1775      N1780   1.430       .  S
C1776      C1777   1.411       .  A
C1776      H1781   1.083       .  S
C1777      C1778   1.419       .  A
C1778      N1782   1.428       .  S
C1779      C1784   1.413       .  A
C1779      C1788   1.403       .  A
N1780      O1795   1.262       .  A
N1780      O1796   1.262       .  A
N1782      O1793   1.262       .  A
N1782      O1794   1.262       .  A
C1784      C1785   1.406       .  A
C1784      N1789   1.429       .  S
C1785      C1786   1.404       .  A
C1785      H1790   1.084       .  S
C1786      C1787   1.414       .  A
C1787      C1788   1.406       .  A
C1787      N1791   1.429       .  S
C1788      H1792   1.084       .  S
N1789      O1799   1.262       .  A
N1789      O1800   1.262       .  A
N1791      O1797   1.262       .  A
N1791      O1798   1.262       .  A
C1801      C1802   1.404       .  A
C1801      C1806   1.404       .  A
C1801      H1811   1.084       .  S
C1802      C1803   1.410       .  A
C1802      C1807   1.486       .  S
C1803      C1804   1.404       .  A
C1803      N1808   1.428       .  S
C1804      C1805   1.403       .  A
C1804      H1809   1.084       .  S
C1805      C1806   1.409       .  A
C1806      N1810   1.429       .  S
C1807      C1812   1.408       .  A
C1807      C1816   1.404       .  A
N1808      O1823   1.262       .  A
N1808      O1824   1.262       .  A
N1810      O1821   1.262       .  A
N1810      O1822   1.262       .  A
C1812      C1813   1.404       .  A
C1812      N1817   1.429       .  S
C1813      C1814   1.405       .  A
C1813      H1818   1.084       .  S
C1814      C1815   1.410       .  A
C1815      C1816   1.407       .  A
C1815      N1819   1.429       .  S
C1816      H1820   1.084       .  S
N1817      O1827   1.262       .  A
N1817      O1828   1.262       .  A
N1819      O1825   1.261       .  A
N1819      O1826   1.262       .  A
C1829      C1830   1.402       .  A
C1829      C1834   1.403       .  A
C1829      H1839   1.084       .  S
C1830      C1831   1.410       .  A
C1830      C1835   1.488       .  S
C1831      C1832   1.402       .  A
C1831      N1836   1.429       .  S
C1832      C1833   1.408       .  A
C1832      H1837   1.084       .  S
C1833      C1834   1.417       .  A
C1834      N1838   1.428       .  S
C1835      C1840   1.412       .  A
C1835      C1844   1.406       .  A
N1836      O1851   1.262       .  A
N1836      O1852   1.262       .  A
N1838      O1849   1.262       .  A
N1838      O1850   1.262       .  A
C1840      C1841   1.402       .  A
C1840      N1845   1.429       .  S
C1841      C1842   1.401       .  A
C1841      H1846   1.084       .  S
C1842      C1843   1.407       .  A
C1843      C1844   1.401       .  A
C1843      N1847   1.429       .  S
C1844      H1848   1.083       .  S
N1845      O1855   1.262       .  A
N1845      O1856   1.262       .  A
N1847      O1853   1.262       .  A
N1847      O1854   1.262       .  A
C1857      C1858   1.404       .  A
C1857      C1862   1.400       .  A
C1857      H1867   1.084       .  S
C1858      C1859   1.411       .  A
C1858      C1863   1.487       .  S
C1859      C1860   1.404       .  A
C1859      N1864   1.429       .  S
C1860      C1861   1.403       .  A
C1860      H1865   1.084       .  S
C1861      C1862   1.407       .  A
C1862      N1866   1.428       .  S
C1863      C1868   1.407       .  A
C1863      C1872   1.399       .  A
N1864      O1879   1.262       .  A
N1864      O1880   1.262       .  A
N1866      O1877   1.262       .  A
N1866      O1878   1.262       .  A
C1868      C1869   1.402       .  A
C1868      N1873   1.429       .  S
C1869      C1870   1.411       .  A
C1869      H1874   1.084       .  S
C1870      C1871   1.416       .  A
C1871      C1872   1.404       .  A
C1871      N1875   1.424       .  S
C1872      H1876   1.084       .  S
N1873      O1883   1.262       .  A
N1873      O1884   1.262       .  A
N1875      O1881   1.262       .  A
N1875      O1882   1.262       .  A
C1885      C1886   1.405       .  A
C1885      C1890   1.405       .  A
C1885      H1895   1.083       .  S
C1886      C1887   1.408       .  A
C1886      C1891   1.486       .  S
C1887      C1888   1.397       .  A
C1887      N1892   1.429       .  S
C1888      C1889   1.406       .  A
C1888      H1893   1.084       .  S
C1889      C1890   1.413       .  A
C1890      N1894   1.429       .  S
C1891      C1896   1.410       .  A
C1891      C1900   1.405       .  A
N1892      O1907   1.262       .  A
N1892      O1908   1.262       .  A
N1894      O1905   1.262       .  A
N1894      O1906   1.261       .  A
C1896      C1897   1.401       .  A
C1896      N1901   1.429       .  S
C1897      C1898   1.405       .  A
C1897      H1902   1.084       .  S
C1898      C1899   1.410       .  A
C1899      C1900   1.400       .  A
C1899      N1903   1.429       .  S
C1900      H1904   1.084       .  S
N1901      O1911   1.262       .  A
N1901      O1912   1.262       .  A
N1903      O1909   1.262       .  A
N1903      O1910   1.262       .  A
C1913      C1914   1.401       .  A
C1913      C1918   1.402       .  A
C1913      H1923   1.084       .  S
C1914      C1915   1.409       .  A
C1914      C1919   1.476       .  S
C1915      C1916   1.399       .  A
C1915      N1920   1.429       .  S
C1916      C1917   1.401       .  A
C1916      H1921   1.084       .  S
C1917      C1918   1.410       .  A
C1918      N1922   1.429       .  S
C1919      C1924   1.404       .  A
C1919      C1928   1.399       .  A
N1920      O1935   1.262       .  A
N1920      O1936   1.262       .  A
N1922      O1933   1.262       .  A
N1922      O1934   1.262       .  A
C1924      C1925   1.400       .  A
C1924      N1929   1.429       .  S
C1925      C1926   1.410       .  A
C1925      H1930   1.083       .  S
C1926      C1927   1.418       .  A
C1927      C1928   1.402       .  A
C1927      N1931   1.428       .  S
C1928      H1932   1.084       .  S
N1929      O1939   1.262       .  A
N1929      O1940   1.262       .  A
N1931      O1937   1.262       .  A
N1931      O1938   1.261       .  A
C1941      C1942   1.404       .  A
C1941      C1946   1.398       .  A
C1941      H1951   1.084       .  S
C1942      C1943   1.412       .  A
C1942      C1947   1.485       .  S
C1943      C1944   1.406       .  A
C1943      N1948   1.429       .  S
C1944      C1945   1.403       .  A
C1944      H1949   1.084       .  S
C1945      C1946   1.406       .  A
C1946      N1950   1.428       .  S
C1947      C1952   1.410       .  A
C1947      C1956   1.401       .  A
N1948      O1963   1.262       .  A
N1948      O1964   1.262       .  A
N1950      O1961   1.262       .  A
N1950      O1962   1.262       .  A
C1952      C1953   1.405       .  A
C1952      N1957   1.429       .  S
C1953      C1954   1.411       .  A
C1953      H1958   1.084       .  S
C1954      C1955   1.417       .  A
C1955      C1956   1.399       .  A
C1955      N1959   1.428       .  S
C1956      H1960   1.084       .  S
N1957      O1967   1.262       .  A
N1957      O1968   1.262       .  A
N1959      O1965   1.262       .  A
N1959      O1966   1.262       .  A
C1969      C1970   1.405       .  A
C1969      C1974   1.405       .  A
C1969      H1979   1.083       .  S
C1970      C1971   1.413       .  A
C1970      C1975   1.492       .  S
C1971      C1972   1.403       .  A
C1971      N1976   1.429       .  S
C1972      C1973   1.402       .  A
C1972      H1977   1.084       .  S
C1973      C1974   1.409       .  A
C1974      N1978   1.428       .  S
C1975      C1980   1.410       .  A
C1975      C1984   1.403       .  A
N1976      O1991   1.262       .  A
N1976      O1992   1.262       .  A
N1978      O1989   1.262       .  A
N1978      O1990   1.262       .  A
C1980      C1981   1.405       .  A
C1980      N1985   1.429       .  S
C1981      C1982   1.409       .  A
C1981      H1986   1.084       .  S
C1982      C1983   1.416       .  A
C1983      C1984   1.404       .  A
C1983      N1987   1.430       .  S
C1984      H1988   1.084       .  S
N1985      O1995   1.262       .  A
N1985      O1996   1.262       .  A
N1987      O1993   1.262       .  A
N1987      O1994   1.262       .  A
C1997      C1998   1.404       .  A
C1997      C2002   1.408       .  A
C1997      H2007   1.084       .  S
C1998      C1999   1.408       .  A
C1998      C2003   1.489       .  S
C1999      C2000   1.399       .  A
C1999      N2004   1.429       .  S
C2000      C2001   1.409       .  A
C2000      H2005   1.084       .  S
C2001      C2002   1.417       .  A
C2002      N2006   1.428       .  S
C2003      C2008   1.411       .  A
C2003      C2012   1.405       .  A
N2004      O2019   1.262       .  A
N2004      O2020   1.262       .  A
N2006      O2017   1.262       .  A
N2006      O2018   1.261       .  A
C2008      C2009   1.405       .  A
C2008      N2013   1.428       .  S
C2009      C2010   1.403       .  A
C2009      H2014   1.084       .  S
C2010      C2011   1.407       .  A
C2011      C2012   1.401       .  A
C2011      N2015   1.429       .  S
C2012      H2016   1.084       .  S
N2013      O2023   1.262       .  A
N2013      O2024   1.262       .  A
N2015      O2021   1.262       .  A
N2015      O2022   1.262       .  A
C2025      C2026   1.403       .  A
C2025      C2030   1.403       .  A
C2025      H2035   1.084       .  S
C2026      C2027   1.407       .  A
C2026      C2031   1.481       .  S
C2027      C2028   1.402       .  A
C2027      N2032   1.428       .  S
C2028      C2029   1.405       .  A
C2028      H2033   1.084       .  S
C2029      C2030   1.410       .  A
C2030      N2034   1.429       .  S
C2031      C2036   1.404       .  A
C2031      C2040   1.403       .  A
N2032      O2047   1.262       .  A
N2032      O2048   1.262       .  A
N2034      O2045   1.262       .  A
N2034      O2046   1.262       .  A
C2036      C2037   1.399       .  A
C2036      N2041   1.429       .  S
C2037      C2038   1.411       .  A
C2037      H2042   1.084       .  S
C2038      C2039   1.415       .  A
C2039      C2040   1.406       .  A
C2039      N2043   1.428       .  S
C2040      H2044   1.084       .  S
N2041      O2051   1.262       .  A
N2041      O2052   1.262       .  A
N2043      O2049   1.262       .  A
N2043      O2050   1.262       .  A
C2053      C2054   1.405       .  A
C2053      C2058   1.405       .  A
C2053      H2063   1.084       .  S
C2054      C2055   1.412       .  A
C2054      C2059   1.491       .  S
C2055      C2056   1.404       .  A
C2055      N2060   1.429       .  S
C2056      C2057   1.402       .  A
C2056      H2061   1.084       .  S
C2057      C2058   1.410       .  A
C2058      N2062   1.429       .  S
C2059      C2064   1.410       .  A
C2059      C2068   1.403       .  A
N2060      O2075   1.262       .  A
N2060      O2076   1.262       .  A
N2062      O2073   1.262       .  A
N2062      O2074   1.262       .  A
C2064      C2065   1.404       .  A
C2064      N2069   1.430       .  S
C2065      C2066   1.408       .  A
C2065      H2070   1.084       .  S
C2066      C2067   1.415       .  A
C2067      C2068   1.407       .  A
C2067      N2071   1.429       .  S
C2068      H2072   1.084       .  S
N2069      O2079   1.262       .  A
N2069      O2080   1.262       .  A
N2071      O2077   1.262       .  A
N2071      O2078   1.262       .  A
C2081      C2082   1.402       .  A
C2081      C2086   1.402       .  A
C2081      H2091   1.083       .  S
C2082      C2083   1.412       .  A
C2082      C2087   1.495       .  S
C2083      C2084   1.405       .  A
C2083      N2088   1.429       .  S
C2084      C2085   1.408       .  A
C2084      H2089   1.083       .  S
C2085      C2086   1.417       .  A
C2086      N2090   1.428       .  S
C2087      C2092   1.415       .  A
C2087      C2096   1.407       .  A
N2088      O2103   1.262       .  A
N2088      O2104   1.262       .  A
N2090      O2101   1.262       .  A
N2090      O2102   1.261       .  A
C2092      C2093   1.403       .  A
C2092      N2097   1.430       .  S
C2093      C2094   1.401       .  A
C2093      H2098   1.084       .  S
C2094      C2095   1.407       .  A
C2095      C2096   1.403       .  A
C2095      N2099   1.429       .  S
C2096      H2100   1.083       .  S
N2097      O2107   1.262       .  A
N2097      O2108   1.262       .  A
N2099      O2105   1.262       .  A
N2099      O2106   1.262       .  A
C2109      C2110   1.403       .  A
C2109      C2114   1.402       .  A
C2109      H2119   1.084       .  S
C2110      C2111   1.409       .  A
C2110      C2115   1.481       .  S
C2111      C2112   1.400       .  A
C2111      N2116   1.428       .  S
C2112      C2113   1.402       .  A
C2112      H2117   1.084       .  S
C2113      C2114   1.409       .  A
C2114      N2118   1.429       .  S
C2115      C2120   1.405       .  A
C2115      C2124   1.402       .  A
N2116      O2131   1.262       .  A
N2116      O2132   1.262       .  A
N2118      O2129   1.262       .  A
N2118      O2130   1.262       .  A
C2120      C2121   1.399       .  A
C2120      N2125   1.429       .  S
C2121      C2122   1.409       .  A
C2121      H2126   1.083       .  S
C2122      C2123   1.416       .  A
C2123      C2124   1.406       .  A
C2123      N2127   1.431       .  S
C2124      H2128   1.084       .  S
N2125      O2135   1.262       .  A
N2125      O2136   1.262       .  A
N2127      O2133   1.262       .  A
N2127      O2134   1.262       .  A
