geometry optimzed in LAMMPS
_audit_creation_date              2020-12-01 
_audit_creation_method            'lammps2cif' 
_symmetry_space_group_name_H-M    'P1' 
_symmetry_Int_Tables_number       1 
_symmetry_cell_setting            triclinic 
loop_ 
_symmetry_equiv_pos_as_xyz 
  x,y,z 
_cell_length_a                    33.63733012 
_cell_length_b                    33.564872872979926 
_cell_length_c                    33.543391261590614 
_cell_angle_alpha                 90.06836772371607 
_cell_angle_beta                  89.78246499031637 
_cell_angle_gamma                 90.41676483608371 
loop_ 
_atom_site_label 
_atom_site_type_symbol 
_atom_site_fract_x 
_atom_site_fract_y 
_atom_site_fract_z 
_atom_site_charge 
C1          C  0.70544418  0.05022185  0.04796355     0.86200
C2          C  0.74579314  0.07044517  0.03589551    -0.54000
C3          C  0.77025924  0.04622432  0.01354446     0.09100
C4          C  0.75232375  0.00531444  0.00522058     0.20100
C5          C  0.68795205  0.03674812  0.00685581    -0.54800
C6          C  0.71326419  0.01354037  0.98463709     0.09200
C7          C  0.71828126  0.01079944  0.06841758    -0.54300
C8          C  0.74243350  0.98775154  0.04564500     0.09800
H9          H  0.75392927  0.10065878  0.04407317     0.14300
H10         H  0.77179094  0.98536593  0.98743654     0.00000
H11         H  0.65968099  0.04673127  0.99525580     0.14600
H12         H  0.70909587  0.00166481  0.09808915     0.14400
C13         C  0.70371221  0.66219796  0.65704721     0.86200
C14         C  0.71757711  0.64712827  0.69876935    -0.54000
C15         C  0.73839304  0.67535646  0.72007465     0.09100
C16         C  0.74357289  0.71490085  0.69860025     0.20100
C17         C  0.68065251  0.70124641  0.66677354    -0.54800
C18         C  0.70194234  0.72853898  0.68818652     0.09200
C19         C  0.74312589  0.67719772  0.63720275    -0.54300
C20         C  0.76424131  0.70435875  0.65957290     0.09800
H21         H  0.71174059  0.61740657  0.71014222     0.14300
H22         H  0.76019917  0.73735124  0.71648108     0.00000
H23         H  0.65084146  0.70760724  0.65647783     0.14600
H24         H  0.75509768  0.66477936  0.60985053     0.14400
C25         C  0.08232100  0.05294255  0.64756084     0.86200
C26         C  0.03988462  0.04869690  0.62933169    -0.54000
C27         C  0.01625401  0.02077195  0.64858780     0.09100
C28         C  0.03656564  0.00080640  0.68349137     0.20100
C29         C  0.07282314  0.06223289  0.69244275    -0.54800
C30         C  0.04952899  0.03418966  0.71091869     0.09200
C31         C  0.09894881  0.00987834  0.64866725    -0.54300
C32         C  0.07477105  0.98324331  0.66810029     0.09800
H33         H  0.02857962  0.06842905  0.60651424     0.14300
H34         H  0.01735447  0.97822433  0.69853351     0.00000
H35         H  0.08264079  0.08829791  0.70862026     0.14600
H36         H  0.12787029  0.00180716  0.63740110     0.14400
C37         C  0.19420759  0.16045377  0.65303813     0.86200
C38         C  0.23394503  0.17398281  0.63275584    -0.54000
C39         C  0.25701704  0.19806546  0.65632705     0.09100
C40         C  0.23883584  0.20666821  0.69688947     0.20100
C41         C  0.20799722  0.14128993  0.69284269    -0.54800
C42         C  0.23121080  0.16602520  0.71541034     0.09200
C43         C  0.17437349  0.20023307  0.66592285    -0.54300
C44         C  0.19824654  0.22432127  0.68869850     0.09800
H45         H  0.24385735  0.16392497  0.60364504     0.14300
H46         H  0.25807366  0.22615714  0.71558430     0.00000
H47         H  0.20032563  0.11129554  0.70228931     0.14600
H48         H  0.14525582  0.20961842  0.65597346     0.14400
Zn49       Zn  0.53710183  0.27342528  0.76936041     1.49700
Zn50       Zn  0.47629520  0.20235278  0.76595936     1.49400
Zn51       Zn  0.48341821  0.25737701  0.70002555     1.49100
Zn52       Zn  0.55438476  0.19984091  0.70828717     1.49500
O53         O  0.51520506  0.23175689  0.73835633    -1.84400
O54         O  0.52653115  0.26199745  0.82742337    -0.75100
O55         O  0.42368844  0.20458854  0.73659659    -0.74900
O56         O  0.51221793  0.30636583  0.68193158    -0.74400
O57         O  0.48024886  0.21431009  0.82440496    -0.75100
O58         O  0.53399827  0.32739794  0.74090909    -0.74700
O59         O  0.42609838  0.26471178  0.71070199    -0.75300
O60         O  0.54506006  0.21566127  0.64806560    -0.74600
O61         O  0.49173212  0.14635804  0.76337629    -0.75400
O62         O  0.48129397  0.21777144  0.65815463    -0.74800
O63         O  0.54491207  0.13890404  0.72463658    -0.75300
O64         O  0.61050686  0.22152268  0.72404190    -0.75200
O65         O  0.59434273  0.26807782  0.76839028    -0.75000
C66         C  0.50689525  0.23349525  0.84360436     0.76800
C67         C  0.40830241  0.23148477  0.71494668     0.77300
C68         C  0.53103273  0.33173240  0.70305169     0.76300
C69         C  0.51022343  0.22340737  0.63511003     0.76700
C70         C  0.51764436  0.12416434  0.74753147     0.77800
C71         C  0.62014801  0.24922943  0.74866236     0.76800
C72         C  0.60065758  0.54519104  0.65166129     0.86200
C73         C  0.55433579  0.54891376  0.64814796    -0.54000
C74         C  0.53314413  0.51801271  0.66620718     0.09100
C75         C  0.56039034  0.48719453  0.68492123     0.20100
C76         C  0.60691557  0.54029596  0.69787986    -0.54800
C77         C  0.58537102  0.51001556  0.71476067     0.09200
C78         C  0.60969091  0.50332843  0.63437160    -0.54300
C79         C  0.58787673  0.47360312  0.65179840     0.09800
H80         H  0.54051352  0.57464174  0.63485172     0.14300
H81         H  0.54511427  0.46123371  0.69869110     0.00000
H82         H  0.62493438  0.55942412  0.71653781     0.14600
H83         H  0.63076546  0.49785028  0.61044096     0.14400
C84         C  0.59019131  0.15148366  0.05858200     0.86200
C85         C  0.58073234  0.19343400  0.07629812    -0.54000
C86         C  0.54800283  0.21177856  0.05924337     0.09100
C87         C  0.52785563  0.18549883  0.02790558     0.20100
C88         C  0.55153052  0.12726035  0.06297495    -0.54800
C89         C  0.51929111  0.14526870  0.04737507     0.09200
C90         C  0.59323597  0.16009144  0.01276000    -0.54300
C91         C  0.56020945  0.17773970  0.99733572     0.09800
H92         H  0.60066513  0.20864645  0.09673007     0.14300
H93         H  0.50118867  0.19874285  0.01397634     0.00000
H94         H  0.55027748  0.09748628  0.07512004     0.14600
H95         H  0.61873176  0.15422185  0.99396516     0.14400
Zn96       Zn  0.76670724  0.78074557  0.93339713     1.49700
Zn97       Zn  0.82528091  0.75818852  0.99936879     1.49400
Zn98       Zn  0.75433776  0.70128922  0.98656417     1.49100
Zn99       Zn  0.82798429  0.71073200  0.92597399     1.49500
O100        O  0.79083157  0.73726832  0.95985176    -1.84400
O101        O  0.77650634  0.83280236  0.96453200    -0.75100
O102        O  0.82538212  0.71942037  0.04236429    -0.74900
O103        O  0.69738724  0.71513539  0.96395215    -0.74400
O104        O  0.80536669  0.80940130  0.01956246    -0.75100
O105        O  0.70863322  0.77445746  0.93615660    -0.74700
O106        O  0.76105066  0.71594961  0.04879757    -0.75300
O107        O  0.81025181  0.65641445  0.91431436    -0.74600
O108        O  0.88139918  0.76184868  0.98408082    -0.75400
O109        O  0.77377934  0.64372894  0.96848566    -0.74800
O110        O  0.87834781  0.70293678  0.95613819    -0.75300
O111        O  0.83205999  0.73835039  0.87458602    -0.75200
O112        O  0.77411785  0.76891411  0.87396857    -0.75000
C113        C  0.78734576  0.83671009  0.00100795     0.76800
C114        C  0.79537798  0.72252098  0.06443587     0.77300
C115        C  0.68506808  0.74644352  0.94572837     0.76300
C116        C  0.79434608  0.63174698  0.93816997     0.76700
C117        C  0.89436426  0.72668070  0.98080354     0.77800
C118        C  0.79902425  0.74514253  0.85785190     0.76800
C119        C  0.93859270  0.31347740  0.86780593     0.86200
C120        C  0.95930187  0.33628737  0.83448354    -0.54000
C121        C  0.93544228  0.36022765  0.81200366     0.09100
C122        C  0.89060925  0.35836849  0.82614403     0.20100
C123        C  0.91837163  0.34582033  0.89177563    -0.54800
C124        C  0.89148275  0.36917678  0.87196452     0.09200
C125        C  0.90518226  0.29034646  0.84712203    -0.54300
C126        C  0.87950280  0.31267031  0.82467892     0.09800
H127        H  0.99134624  0.33536690  0.83107755     0.14300
H128        H  0.87043422  0.37746792  0.80853118     0.00000
H129        H  0.92718608  0.34935098  0.92229517     0.14600
H130        H  0.90414391  0.25815600  0.84859480     0.14400
C131        C  0.95542844  0.39042872  0.78345802     0.86200
C132        C  0.99446903  0.37455789  0.76321834    -0.54000
C133        C  0.01387648  0.40226967  0.74027781     0.09100
C134        C  0.99300036  0.44205153  0.73937192     0.20100
C135        C  0.96847899  0.42872867  0.80584290    -0.54800
C136        C  0.98872229  0.45509154  0.78233374     0.09200
C137        C  0.93082740  0.40554488  0.74755294    -0.54300
C138        C  0.95136299  0.43265521  0.72424056     0.09800
H139        H  0.00539526  0.34439590  0.76618521     0.14300
H140        H  0.00898678  0.46484259  0.72127027     0.00000
H141        H  0.96132237  0.43477667  0.83684418     0.14600
H142        H  0.90188090  0.39354940  0.73966189     0.14400
C143        C  0.86314106  0.39784544  0.89558182     0.86200
C144        C  0.86784730  0.44418666  0.88921751    -0.54000
C145        C  0.84204851  0.46673564  0.91255487     0.09100
C146        C  0.81494561  0.44111564  0.93847822     0.20100
C147        C  0.86680889  0.39277303  0.94181639    -0.54800
C148        C  0.84177316  0.41530017  0.96328061     0.09200
C149        C  0.81834479  0.38964085  0.88783366    -0.54300
C150        C  0.79373061  0.41317299  0.91016130     0.09800
H151        H  0.88978456  0.45726753  0.86932051     0.14300
H152        H  0.79363354  0.45814615  0.95718769     0.00000
H153        H  0.88599390  0.37320779  0.95813295     0.14600
H154        H  0.80725697  0.36659653  0.86827589     0.14400
C155        C  0.18943385  0.04868184  0.54852673     0.86200
C156        C  0.17229219  0.04388663  0.50552057    -0.54000
C157        C  0.19329484  0.01713023  0.48225890     0.09100
C158        C  0.22698272  0.99718064  0.50449605     0.20100
C159        C  0.18972989  0.00619505  0.56576602    -0.54800
C160        C  0.20929151  0.97981004  0.54233010     0.09200
C161        C  0.23450443  0.05885338  0.54018612    -0.54300
C162        C  0.25386874  0.03096490  0.51761470     0.09800
H163        H  0.14802099  0.06159102  0.49409654     0.14300
H164        H  0.24297069  0.97446196  0.48648133     0.00000
H165        H  0.17672973  0.99784312  0.59404633     0.14600
H166        H  0.24919679  0.08625385  0.54913531     0.14400
C167        C  0.16691171  0.13253813  0.62633566     0.86200
C168        C  0.13555648  0.10832757  0.64936075    -0.54000
C169        C  0.11198179  0.08306378  0.62711730     0.09100
C170        C  0.12244894  0.08617812  0.58127700     0.20100
C171        C  0.19005836  0.10110827  0.60307041    -0.54800
C172        C  0.16831149  0.07816781  0.57724581     0.09200
C173        C  0.14329186  0.15469822  0.59435777    -0.54300
C174        C  0.11852603  0.13151921  0.57145506     0.09800
H175        H  0.13433798  0.11029078  0.68140867     0.14300
H176        H  0.10405413  0.06649359  0.56205403     0.00000
H177        H  0.22170814  0.09745678  0.60731214     0.14600
H178        H  0.14755378  0.18631573  0.58923150     0.14400
C179        C  0.09021498  0.64778488  0.03978295     0.86200
C180        C  0.07692841  0.62958967  0.99900616    -0.54000
C181        C  0.04843688  0.65126560  0.97959932     0.09100
C182        C  0.03474478  0.68714225  0.00317785     0.20100
C183        C  0.10211970  0.69149786  0.02800633    -0.54800
C184        C  0.07205436  0.71232331  0.00925600     0.09200
C185        C  0.05137737  0.65351937  0.06422637    -0.54300
C186        C  0.02288602  0.67341374  0.04452297     0.09800
H187        H  0.09255227  0.60558977  0.98420145     0.14300
H188        H  0.00986465  0.70262264  0.98827595     0.00000
H189        H  0.13121439  0.70411799  0.03382623     0.14600
H190        H  0.04703699  0.64419965  0.09491338     0.14400
C191        C  0.21258633  0.55083332  0.04053141     0.86200
C192        C  0.21427847  0.50583522  0.05305903    -0.54000
C193        C  0.24402778  0.48478676  0.03389736     0.09100
C194        C  0.26806277  0.50968221  0.00480915     0.20100
C195        C  0.25569321  0.56665300  0.04752450    -0.54800
C196        C  0.28418585  0.54464595  0.02825825     0.09200
C197        C  0.20905255  0.54818223  0.99409030    -0.54300
C198        C  0.23846605  0.52680946  0.97618608     0.09800
H199        H  0.19346981  0.49206174  0.07371409     0.14300
H200        H  0.29166351  0.49243387  0.98925353     0.00000
H201        H  0.26283316  0.59270479  0.06529088     0.14600
H202        H  0.18486417  0.55965954  0.97649120     0.14400
C203        C  0.20325625  0.64763577  0.14408465     0.86200
C204        C  0.21633093  0.69033772  0.13014002    -0.54000
C205        C  0.24289648  0.70897417  0.15518422     0.09100
C206        C  0.25450634  0.68316423  0.19050670     0.20100
C207        C  0.24290062  0.62506718  0.14897770    -0.54800
C208        C  0.26924466  0.64380235  0.17348943     0.09200
C209        C  0.18785583  0.65521373  0.18724648    -0.54300
C210        C  0.21525726  0.67376578  0.21119292     0.09800
H211        H  0.20352792  0.70570245  0.10488643     0.14300
H212        H  0.27644435  0.69802293  0.21044452     0.00000
H213        H  0.25023790  0.59762398  0.13372049     0.14600
H214        H  0.15763748  0.64958751  0.19703848     0.14400
C215        C  0.12185804  0.62229562  0.06413451     0.86200
C216        C  0.15394490  0.60068382  0.03968913    -0.54000
C217        C  0.17945597  0.57671063  0.06103761     0.09100
C218        C  0.17145085  0.58028223  0.10714919     0.20100
C219        C  0.10229552  0.58857720  0.08867442    -0.54800
C220        C  0.12668889  0.56827484  0.11375279     0.09200
C221        C  0.14554681  0.64687132  0.09487592    -0.54300
C222        C  0.17309587  0.62614793  0.11633215     0.09800
H223        H  0.15624950  0.60553835  0.00799494     0.14300
H224        H  0.19196706  0.56227495  0.12546265     0.00000
H225        H  0.07087504  0.58242063  0.08672286     0.14600
H226        H  0.14117530  0.67859485  0.09880697     0.14400
C227        C  0.60350139  0.64488872  0.54213916     0.86200
C228        C  0.55860994  0.64199391  0.55333156    -0.54000
C229        C  0.53394765  0.65663961  0.52437127     0.09100
C230        C  0.55564937  0.67193353  0.48761647     0.20100
C231        C  0.60724069  0.62362840  0.50138112    -0.54800
C232        C  0.58165588  0.63774649  0.47333739     0.09200
C233        C  0.60903491  0.69034688  0.53172909    -0.54300
C234        C  0.58364127  0.70402089  0.50311607     0.09800
H235        H  0.54784397  0.63230093  0.58230142     0.14300
H236        H  0.53500598  0.68331244  0.46448688     0.00000
H237        H  0.62813266  0.60003837  0.49520615     0.14600
H238        H  0.62941915  0.71088719  0.54591181     0.14400
Zn239      Zn  0.25099368  0.70362410  0.50028431     1.49700
Zn240      Zn  0.31636099  0.71006842  0.42683863     1.49400
Zn241      Zn  0.25328448  0.77409036  0.43229843     1.49100
Zn242      Zn  0.32152409  0.77249489  0.49080431     1.49500
O243        O  0.28400433  0.73828417  0.46389131    -1.84400
O244        O  0.26023724  0.64326694  0.48185409    -0.75100
O245        O  0.29931798  0.71573021  0.36948541    -0.74900
O246        O  0.19820927  0.76290450  0.44276425    -0.74400
O247        O  0.30312328  0.65539537  0.43299718    -0.75100
O248        O  0.18981420  0.72011296  0.49235622    -0.74700
O249        O  0.25435723  0.76364952  0.37423007    -0.75300
O250        O  0.30167095  0.82786165  0.49723077    -0.74600
O251        O  0.37291321  0.70656670  0.44596297    -0.75400
O252        O  0.25463126  0.82996290  0.45141772    -0.74800
O253        O  0.37942813  0.76074490  0.48276962    -0.75300
O254        O  0.31933153  0.75875174  0.54564847    -0.75200
O255        O  0.27237072  0.71425052  0.55984821    -0.75000
C256        C  0.28311886  0.63110796  0.45354566     0.76800
C257        C  0.27061820  0.73556756  0.35495090     0.77300
C258        C  0.17552532  0.74373388  0.46582418     0.76300
C259        C  0.27093890  0.84392225  0.48253311     0.76700
C260        C  0.39232938  0.72703080  0.47139702     0.77800
C261        C  0.30051537  0.73816733  0.57071598     0.76800
Zn262      Zn  0.22775306  0.46961156  0.66304222     1.49700
Zn263      Zn  0.28884937  0.53403333  0.68043345     1.49400
Zn264      Zn  0.21838028  0.51813927  0.73777219     1.49100
Zn265      Zn  0.28919801  0.45449133  0.73342298     1.49500
O266        O  0.25721563  0.49369922  0.70487405    -1.84400
O267        O  0.26059452  0.47306434  0.61461631    -0.75100
O268        O  0.28358161  0.58361648  0.71221274    -0.74900
O269        O  0.16658361  0.48981112  0.72774270    -0.74400
O270        O  0.28925637  0.53244871  0.62025696    -0.75100
O271        O  0.16971206  0.48164465  0.66229773    -0.74700
O272        O  0.22469857  0.57823157  0.74233292    -0.75300
O273        O  0.28565185  0.46791183  0.79330446    -0.74600
O274        O  0.34421834  0.52103838  0.68666976    -0.75400
O275        O  0.23154974  0.50572679  0.79228888    -0.74800
O276        O  0.34783086  0.46069710  0.71353652    -0.75300
O277        O  0.26388201  0.39850011  0.72374909    -0.75200
O278        O  0.22331720  0.41345877  0.67434755    -0.75000
C279        C  0.28614611  0.49866301  0.60300363     0.76800
C280        C  0.25806697  0.59605756  0.73737821     0.77300
C281        C  0.15253072  0.47516173  0.69563750     0.76300
C282        C  0.25925825  0.48882357  0.81096548     0.76700
C283        C  0.36419713  0.49101504  0.69665744     0.77800
C284        C  0.23709878  0.38842710  0.69846720     0.76800
Zn285      Zn  0.05846461  0.73994311  0.67236264     1.49700
Zn286      Zn  0.06762668  0.68584668  0.74384279     1.49400
Zn287      Zn  0.99885836  0.75319747  0.74674950     1.49100
Zn288      Zn  0.99298118  0.67758110  0.69233482     1.49500
O289        O  0.02979957  0.71479983  0.71469602    -1.84400
O290        O  0.11913175  0.73641948  0.67679746    -0.75100
O291        O  0.05518240  0.69389624  0.79879172    -0.74900
O292        O  0.02295122  0.81055440  0.73722417    -0.74400
O293        O  0.12070868  0.71155532  0.73802193    -0.75100
O294        O  0.05683233  0.79610457  0.68251266    -0.74700
O295        O  0.00340045  0.73398682  0.80693720    -0.75300
O296        O  0.94247961  0.68508507  0.72041403    -0.74600
O297        O  0.06024361  0.62615249  0.74275795    -0.75400
O298        O  0.94167902  0.75010305  0.72139260    -0.74800
O299        O  0.00503643  0.62110072  0.70674494    -0.75300
O300        O  0.97845066  0.69376770  0.63597432    -0.75200
O301        O  0.02645282  0.73757065  0.62147795    -0.75000
C302        C  0.13661288  0.73214769  0.71036139     0.76800
C303        C  0.03008384  0.71061904  0.82105487     0.77300
C304        C  0.04482635  0.82129013  0.70762517     0.76300
C305        C  0.92476588  0.71700361  0.71228906     0.76700
C306        C  0.02960826  0.60658309  0.73154079     0.77800
C307        C  0.99289266  0.72122229  0.61387464     0.76800
C308        C  0.35105394  0.80136184  0.79584064     0.86200
C309        C  0.37047652  0.79161290  0.75466503    -0.54000
C310        C  0.34854131  0.76507630  0.73197888     0.09100
C311        C  0.31018304  0.75168259  0.75195124     0.20100
C312        C  0.30843703  0.81618961  0.78373604    -0.54800
C313        C  0.28750665  0.78951357  0.76061468     0.09200
C314        C  0.34276821  0.76035565  0.81563831    -0.54300
C315        C  0.32076409  0.73507407  0.79249198     0.09800
H316        H  0.39667133  0.80693639  0.74328910     0.14300
H317        H  0.29287329  0.73013077  0.73353660     0.00000
H318        H  0.29600431  0.84467198  0.79223026     0.14600
H319        H  0.35163105  0.75295303  0.84576177     0.14400
Zn320      Zn  0.56582908  0.68492028  0.19865641     1.49700
Zn321      Zn  0.54160753  0.74513296  0.27179287     1.49400
Zn322      Zn  0.48905369  0.74535898  0.19657276     1.49100
Zn323      Zn  0.48999597  0.67406157  0.24811122     1.49500
O324        O  0.52385231  0.71459210  0.22736730    -1.84400
O325        O  0.62049422  0.70669974  0.22168939    -0.75100
O326        O  0.53287115  0.80473123  0.26241988    -0.74900
O327        O  0.50529892  0.73735048  0.14251712    -0.74400
O328        O  0.59899323  0.74557395  0.27096782    -0.75100
O329        O  0.55534701  0.69515970  0.13544319    -0.74700
O330        O  0.50046349  0.80381962  0.20466508    -0.75300
O331        O  0.43302176  0.68436582  0.24915122    -0.74600
O332        O  0.53470283  0.71384530  0.32370588    -0.75400
O333        O  0.43380512  0.72021820  0.19413619    -0.74800
O334        O  0.51125529  0.65633902  0.29987821    -0.75300
O335        O  0.49431763  0.62972122  0.21108579    -0.75200
O336        O  0.55794267  0.62554643  0.22023552    -0.75000
C337        C  0.62703550  0.73020587  0.25139590     0.76800
C338        C  0.52117711  0.82228579  0.23070304     0.77300
C339        C  0.52863786  0.71810827  0.12023388     0.76300
C340        C  0.41738505  0.69394935  0.21625605     0.76700
C341        C  0.52863146  0.67622007  0.32690819     0.77800
C342        C  0.52316514  0.61021497  0.22437791     0.76800
C343        C  0.38087625  0.87402519  0.88280405     0.86200
C344        C  0.40390910  0.83923758  0.90157294    -0.54000
C345        C  0.42737693  0.81728439  0.87671827     0.09100
C346        C  0.42129181  0.83032345  0.83194398     0.20100
C347        C  0.41159315  0.89732058  0.85850139    -0.54800
C348        C  0.43316376  0.87579868  0.83133663     0.09200
C349        C  0.35486944  0.85339999  0.85132754    -0.54300
C350        C  0.37475833  0.82974006  0.82437890     0.09800
H351        H  0.40039692  0.83220394  0.93281780     0.14300
H352        H  0.43829773  0.81190311  0.81043910     0.00000
H353        H  0.41411398  0.92918823  0.86194371     0.14600
H354        H  0.32282693  0.85587045  0.85189842     0.14400
C355        C  0.46344813  0.89674231  0.80293591     0.86200
C356        C  0.50153487  0.87280315  0.79376148    -0.54000
C357        C  0.52697337  0.89220615  0.76844240     0.09100
C358        C  0.51311887  0.93307516  0.75518233     0.20100
C359        C  0.47917403  0.93841392  0.81779498    -0.54800
C360        C  0.50461415  0.95736896  0.79201788     0.09200
C361        C  0.44624785  0.90601714  0.76100879    -0.54300
C362        C  0.47289359  0.92540432  0.73639991     0.09800
H363        H  0.50715583  0.84302865  0.80428383     0.14300
H364        H  0.53478786  0.94823301  0.73505348     0.00000
H365        H  0.46920174  0.95366858  0.84437786     0.14600
H366        H  0.41643029  0.89768539  0.75181716     0.14400
C367        C  0.45646153  0.78493714  0.89378608     0.86200
C368        C  0.44193531  0.74154988  0.88697683    -0.54000
C369        C  0.46698905  0.71353109  0.90224488     0.09100
C370        C  0.50397509  0.73037485  0.92201730     0.20100
C371        C  0.46401558  0.78680110  0.94015046    -0.54800
C372        C  0.48853241  0.75751136  0.95477351     0.09200
C373        C  0.49957369  0.78680288  0.87729197    -0.54300
C374        C  0.52417842  0.75791978  0.89219699     0.09800
H375        H  0.41321005  0.73393525  0.87447068     0.14300
H376        H  0.52387577  0.70661848  0.93330261     0.00000
H377        H  0.45323918  0.81018106  0.95937400     0.14600
H378        H  0.51105413  0.81188515  0.86068806     0.14400
C379        C  0.70520754  0.54594612  0.55361124     0.86200
C380        C  0.68362484  0.52939300  0.51554802    -0.54000
C381        C  0.70694198  0.50421105  0.49257023     0.09100
C382        C  0.74823050  0.49815342  0.50994271     0.20100
C383        C  0.71970082  0.50807862  0.57557041    -0.54800
C384        C  0.74260426  0.48355472  0.55250400     0.09200
C385        C  0.74381175  0.56518704  0.53568583    -0.54300
C386        C  0.76573034  0.53976666  0.51266323     0.09800
H387        H  0.65428834  0.53854602  0.50634071     0.14300
H388        H  0.76715340  0.47789273  0.49196642     0.00000
H389        H  0.71162518  0.50093168  0.60611287     0.14600
H390        H  0.75241341  0.59611822  0.53999040     0.14400
Zn391      Zn  0.80780574  0.44268317  0.26626523     1.49700
Zn392      Zn  0.81406923  0.50539402  0.19313867     1.49400
Zn393      Zn  0.75436709  0.44147465  0.18642988     1.49100
Zn394      Zn  0.73988655  0.50852868  0.24579781     1.49500
O395        O  0.78002782  0.47416077  0.22525126    -1.84400
O396        O  0.87100870  0.45795277  0.26175918    -0.75100
O397        O  0.82026975  0.48356158  0.13980373    -0.74900
O398        O  0.78227519  0.39099030  0.18632865    -0.74400
O399        O  0.86674372  0.50212042  0.21293979    -0.75100
O400        O  0.79329661  0.38323438  0.25098570    -0.74700
O401        O  0.76223823  0.45508960  0.12849297    -0.75300
O402        O  0.68331218  0.48928231  0.23377003    -0.74600
O403        O  0.80392789  0.56261492  0.19510664    -0.75400
O404        O  0.69875369  0.43096714  0.20672636    -0.74800
O405        O  0.76326404  0.56436756  0.24707780    -0.75300
O406        O  0.73497579  0.49953750  0.30202805    -0.75200
O407        O  0.77908946  0.45565650  0.32221536    -0.75000
C408        C  0.88742779  0.48358216  0.23790628     0.76800
C409        C  0.79727259  0.46439445  0.11706880     0.77300
C410        C  0.78432652  0.36892187  0.21655977     0.76300
C411        C  0.67473501  0.45271510  0.22641212     0.76700
C412        C  0.79228956  0.57893822  0.22714584     0.77800
C413        C  0.74964742  0.47908996  0.32954511     0.76800
C414        C  0.69029472  0.14941809  0.16731414     0.86200
C415        C  0.69697341  0.19376934  0.15487801    -0.54000
C416        C  0.71340619  0.21701464  0.18465855     0.09100
C417        C  0.72093628  0.19450906  0.22322214     0.20100
C418        C  0.73241825  0.13666092  0.18252592    -0.54800
C419        C  0.74844224  0.16101638  0.21115417     0.09200
C420        C  0.66452893  0.15261002  0.20576104    -0.54300
C421        C  0.68113174  0.17587857  0.23486170     0.09800
H422        H  0.68999599  0.20522536  0.12550323     0.14300
H423        H  0.73393494  0.21339512  0.24721992     0.00000
H424        H  0.74982673  0.11270908  0.16995779     0.14600
H425        H  0.63533058  0.13952608  0.20947542     0.14400
Zn426      Zn  0.74301341  0.94999507  0.66855133     1.49700
Zn427      Zn  0.71690277  0.00744914  0.73722782     1.49400
Zn428      Zn  0.79158520  0.95114043  0.74747992     1.49100
Zn429      Zn  0.79359261  0.02297279  0.68790529     1.49500
O430        O  0.76034373  0.98410351  0.71095844    -1.84400
O431        O  0.68580154  0.93379263  0.67664329    -0.75100
O432        O  0.72269464  0.99990562  0.79482549    -0.74900
O433        O  0.76486184  0.89569692  0.74112426    -0.74400
O434        O  0.66823324  0.97530600  0.72566292    -0.75100
O435        O  0.77051069  0.89973878  0.67665454    -0.74700
O436        O  0.78008877  0.96961338  0.80627960    -0.75300
O437        O  0.83998284  0.02245342  0.72223542    -0.74600
O438        O  0.72028870  0.06738640  0.73624029    -0.75400
O439        O  0.85037883  0.95841466  0.72439008    -0.74800
O440        O  0.77403597  0.07781361  0.69815178    -0.75300
O441        O  0.81286890  0.00469417  0.63260725    -0.75200
O442        O  0.76302008  0.96474598  0.61467222    -0.75000
C443        C  0.66215238  0.94433829  0.70436628     0.76800
C444        C  0.74865741  0.98730647  0.81879785     0.77300
C445        C  0.75724437  0.88145374  0.70668968     0.76300
C446        C  0.86282908  0.99367935  0.71572106     0.76700
C447        C  0.74955780  0.08907437  0.72498873     0.77800
C448        C  0.79719056  0.98010590  0.60803688     0.76800
C449        C  0.84759402  0.29193159  0.79796574     0.86200
C450        C  0.80728728  0.31392875  0.79319661    -0.54000
C451        C  0.78056542  0.29366988  0.76954149     0.09100
C452        C  0.79633542  0.25482789  0.75293420     0.20100
C453        C  0.83442407  0.24955255  0.81317199    -0.54800
C454        C  0.80765801  0.23067488  0.78897097     0.09200
C455        C  0.86198061  0.28473113  0.75433242    -0.54300
C456        C  0.83458338  0.26481586  0.73141771     0.09800
H457        H  0.79984063  0.34139331  0.80816713     0.14300
H458        H  0.77487971  0.23893278  0.73324553     0.00000
H459        H  0.84407111  0.23593023  0.84070475     0.14600
H460        H  0.89033177  0.29523885  0.74271031     0.14400
Zn461      Zn  0.79902525  0.20396949  0.42526664     1.49700
Zn462      Zn  0.74081229  0.26979645  0.45595776     1.49400
Zn463      Zn  0.74256363  0.19067328  0.50244821     1.49100
Zn464      Zn  0.81845960  0.25151020  0.49987360     1.49500
O465        O  0.77609077  0.22799366  0.47151855    -1.84400
O466        O  0.76352139  0.21345437  0.37839435    -0.75100
O467        O  0.69402108  0.26562919  0.49049008    -0.74900
O468        O  0.75814700  0.13276675  0.48593623    -0.74400
O469        O  0.71819859  0.25636968  0.40082427    -0.75100
O470        O  0.79137642  0.14735951  0.43038644    -0.74700
O471        O  0.68372009  0.20202706  0.48342333    -0.75300
O472        O  0.81593526  0.23167228  0.55332040    -0.74600
O473        O  0.75831682  0.32447302  0.47331963    -0.75400
O474        O  0.75616448  0.20369631  0.56270493    -0.74800
O475        O  0.81037242  0.31005075  0.51137822    -0.75300
O476        O  0.87066159  0.23020206  0.48343500    -0.75200
O477        O  0.86035618  0.20126639  0.42487275    -0.75000
C478        C  0.72971150  0.23034180  0.37548165     0.76800
C479        C  0.67104442  0.23774198  0.48032817     0.77300
C480        C  0.77746841  0.12224242  0.45468262     0.76300
C481        C  0.78889104  0.21870346  0.57604873     0.76700
C482        C  0.78223325  0.33323072  0.50152892     0.77800
C483        C  0.88233884  0.20766356  0.45530704     0.76800
C484        C  0.93339437  0.87514079  0.31205774     0.86200
C485        C  0.90326314  0.89970495  0.33633732    -0.54000
C486        C  0.87850085  0.87879358  0.36160424     0.09100
C487        C  0.88657196  0.83286424  0.35888109     0.20100
C488        C  0.95559752  0.85068700  0.34336305    -0.54800
C489        C  0.93237367  0.82809316  0.36863579     0.09200
C490        C  0.90807494  0.84435670  0.29005014    -0.54300
C491        C  0.88182066  0.82303886  0.31300267     0.09800
H492        H  0.90337009  0.93175906  0.33426568     0.14300
H493        H  0.86686423  0.81478861  0.37846270     0.00000
H494        H  0.98771075  0.85091184  0.34415179     0.14600
H495        H  0.91169970  0.83960233  0.25832729     0.14400
C496        C  0.85042004  0.90064469  0.39185367     0.86200
C497        C  0.84153873  0.94520167  0.38105491    -0.54000
C498        C  0.81896136  0.96451194  0.40874060     0.09100
C499        C  0.80716074  0.93915995  0.44380928     0.20100
C500        C  0.86867855  0.90299842  0.43422342    -0.54800
C501        C  0.84574400  0.92360127  0.46083134     0.09200
C502        C  0.80794749  0.88255587  0.39883095    -0.54300
C503        C  0.78516932  0.90346529  0.42623778     0.09800
H504        H  0.85139359  0.96060393  0.35444687     0.14300
H505        H  0.78972235  0.95654743  0.46594055     0.00000
H506        H  0.89704828  0.89006829  0.44215288     0.14600
H507        H  0.79710547  0.85656705  0.38315406     0.14400
C508        C  0.95159721  0.80153796  0.40196006     0.86200
C509        C  0.99430453  0.81527261  0.41551762    -0.54000
C510        C  0.01161284  0.79139073  0.44365366     0.09100
C511        C  0.98491824  0.75716123  0.45628575     0.20100
C512        C  0.95824498  0.75730020  0.38921930    -0.54800
C513        C  0.97633891  0.73443962  0.41801975     0.09200
C514        C  0.92774778  0.79862255  0.44161592    -0.54300
C515        C  0.94543187  0.77472232  0.46945937     0.09800
H516        H  0.01100068  0.83965627  0.40241175     0.14300
H517        H  0.99866266  0.73865374  0.47993464     0.00000
H518        H  0.95096112  0.74599356  0.35984920     0.14600
H519        H  0.89987384  0.81378146  0.44709125     0.14400
C520        C  0.85319136  0.79222553  0.29332452     0.86200
C521        C  0.87067534  0.75004075  0.29472991    -0.54000
C522        C  0.84740974  0.72218594  0.27664609     0.09100
C523        C  0.80834521  0.73788274  0.25994256     0.20100
C524        C  0.84407991  0.79905388  0.24772969    -0.54800
C525        C  0.82017008  0.77036386  0.23051952     0.09200
C526        C  0.81100727  0.78844128  0.31192882    -0.54300
C527        C  0.78764416  0.75963362  0.29427516     0.09800
H528        H  0.89946795  0.74315114  0.30736291     0.14300
H529        H  0.79025074  0.71381933  0.24613067     0.00000
H530        H  0.85522478  0.82396360  0.23036655     0.14600
H531        H  0.79991103  0.80809875  0.33493633     0.14400
C532        C  0.34968060  0.40288506  0.40824529     0.86200
C533        C  0.37230250  0.41223587  0.44722396    -0.54000
C534        C  0.35192145  0.43772448  0.47169631     0.09100
C535        C  0.31154299  0.45061576  0.45624646     0.20100
C536        C  0.30790395  0.38742540  0.42325841    -0.54800
C537        C  0.28766455  0.41350114  0.44737439     0.09200
C538        C  0.34038140  0.44478325  0.39028757    -0.54300
C539        C  0.31998223  0.46927206  0.41621996     0.09800
H540        H  0.40074653  0.39950638  0.45513230     0.14300
H541        H  0.29577376  0.47090246  0.47715001     0.00000
H542        H  0.29453241  0.35952959  0.41378473     0.14600
H543        H  0.34951477  0.45407081  0.36064041     0.14400
Zn544      Zn  0.57173289  0.43512522  0.00565303     1.49700
Zn545      Zn  0.51245799  0.50070177  0.02112708     1.49400
Zn546      Zn  0.56999873  0.50648633  0.94989808     1.49100
Zn547      Zn  0.49726363  0.44112320  0.95204507     1.49500
O548        O  0.53840572  0.47123638  0.98044931    -1.84400
O549        O  0.55287390  0.42938422  0.06236404    -0.75100
O550        O  0.50199557  0.55590905  0.99983854    -0.74900
O551        O  0.62869992  0.49349997  0.95063578    -0.74400
O552        O  0.53453468  0.49118079  0.07541431    -0.75100
O553        O  0.62858111  0.44426821  0.99463784    -0.74700
O554        O  0.54858743  0.56202219  0.95292669    -0.75300
O555        O  0.51282524  0.44563428  0.89041903    -0.74600
O556        O  0.45876843  0.47896378  0.02804882    -0.75400
O557        O  0.55901773  0.49343123  0.89531879    -0.74800
O558        O  0.44498160  0.47258197  0.96443802    -0.75300
O559        O  0.49796708  0.38386425  0.98071917    -0.75200
O560        O  0.56260164  0.38440165  0.97877772    -0.75000
C561        C  0.53784146  0.45482846  0.08608960     0.76800
C562        C  0.51709924  0.57442988  0.97019879     0.77300
C563        C  0.64595718  0.46433706  0.96756402     0.76300
C564        C  0.53805978  0.47009107  0.87454790     0.76700
C565        C  0.43523283  0.48454895  0.99941400     0.77800
C566        C  0.53106946  0.36726760  0.98966915     0.76800
C567        C  0.45647738  0.39199692  0.30636925     0.86200
C568        C  0.45648975  0.43745022  0.31783690    -0.54000
C569        C  0.48300076  0.46055148  0.29562077     0.09100
C570        C  0.50667859  0.43630219  0.26558303     0.20100
C571        C  0.44972837  0.39311820  0.26003968    -0.54800
C572        C  0.47644258  0.41579041  0.23965933     0.09200
C573        C  0.50104485  0.37981002  0.31023907    -0.54300
C574        C  0.52680864  0.40360034  0.28884431     0.09800
H575        H  0.43738540  0.44961959  0.34087708     0.14300
H576        H  0.52801516  0.45417888  0.24738279     0.00000
H577        H  0.42604511  0.37864952  0.24373876     0.14600
H578        H  0.51125035  0.35439433  0.32662411     0.14400
C579        C  0.36710853  0.31782537  0.33100189     0.86200
C580        C  0.40111717  0.33817417  0.30792819    -0.54000
C581        C  0.42554400  0.36376231  0.32895542     0.09100
C582        C  0.41577745  0.36101322  0.37520389     0.20100
C583        C  0.38869528  0.29438597  0.36381682    -0.54800
C584        C  0.41674979  0.31480147  0.38572710     0.09200
C585        C  0.34684362  0.35193013  0.35301917    -0.54300
C586        C  0.37030973  0.37342552  0.37861550     0.09800
H587        H  0.40547485  0.33100015  0.27692080     0.14300
H588        H  0.43610010  0.37933841  0.39378407     0.00000
H589        H  0.38196508  0.26331053  0.36804572     0.14600
H590        H  0.31547562  0.35800556  0.34929878     0.14400
C591        C  0.44723231  0.29201670  0.41366855     0.86200
C592        C  0.44259621  0.24505303  0.41502188    -0.54000
C593        C  0.46984725  0.22625659  0.43856054     0.09100
C594        C  0.49884034  0.25435556  0.45809007     0.20100
C595        C  0.44647616  0.30408425  0.45859788    -0.54800
C596        C  0.47394348  0.28403871  0.48149950     0.09200
C597        C  0.49166067  0.29796790  0.40124248    -0.54300
C598        C  0.51815856  0.27769128  0.42467021     0.09800
H599        H  0.42100902  0.22734391  0.39901328     0.14300
H600        H  0.52075469  0.23797719  0.47655297     0.00000
H601        H  0.42595068  0.32567059  0.47092350     0.14600
H602        H  0.50109125  0.31608516  0.37660714     0.14400
Zn603      Zn  0.53826420  0.92881241  0.42754394     1.49700
Zn604      Zn  0.47517745  0.92898435  0.49357785     1.49400
Zn605      Zn  0.55304264  0.98858929  0.50110701     1.49100
Zn606      Zn  0.48317744  0.99952411  0.44155365     1.49500
O607        O  0.51372387  0.96042517  0.46754591    -1.84400
O608        O  0.52246536  0.87134423  0.43104568    -0.75100
O609        O  0.48313096  0.93809424  0.54903189    -0.74900
O610        O  0.61061035  0.96461735  0.48845901    -0.74400
O611        O  0.49021076  0.87190451  0.48887576    -0.75100
O612        O  0.59487006  0.92397923  0.43886324    -0.74700
O613        O  0.53527394  0.97765144  0.56015118    -0.75300
O614        O  0.48235598  0.04541454  0.47704641    -0.74600
O615        O  0.41934239  0.94955749  0.48733467    -0.75400
O616        O  0.54707708  0.05010689  0.48716433    -0.74800
O617        O  0.42490876  0.98951781  0.43508581    -0.75300
O618        O  0.51270978  0.01522608  0.39240830    -0.75200
O619        O  0.54005343  0.95760530  0.37546420    -0.75000
C620        C  0.51284323  0.85467010  0.46392096     0.76800
C621        C  0.50595695  0.95628915  0.57273519     0.77300
C622        C  0.62066218  0.93854549  0.46210638     0.76300
C623        C  0.51324324  0.06652699  0.48092520     0.76700
C624        C  0.40471900  0.97548811  0.46400669     0.77800
C625        C  0.53524995  0.99479983  0.36985116     0.76800
C626        C  0.59418100  0.04674024  0.15539362     0.86200
C627        C  0.59672164  0.99984876  0.15686279    -0.54000
C628        C  0.57529922  0.98236661  0.18756417     0.09100
C629        C  0.55404006  0.01312625  0.21336806     0.20100
C630        C  0.54817918  0.05446061  0.15474845    -0.54800
C631        C  0.52760870  0.03573308  0.18515838     0.09200
C632        C  0.60774740  0.05887636  0.19730269    -0.54300
C633        C  0.58607787  0.04228534  0.22703152     0.09800
H634        H  0.61437702  0.98223458  0.13670459     0.14300
H635        H  0.53660183  0.00030124  0.23851340     0.00000
H636        H  0.53308840  0.07138967  0.13212778     0.14600
H637        H  0.63400233  0.07649588  0.20307835     0.14400
C638        C  0.11008813  0.54309107  0.14928821     0.86200
C639        C  0.12156638  0.49866528  0.14839757    -0.54000
C640        C  0.10827245  0.47786399  0.18106758     0.09100
C641        C  0.08577967  0.50299535  0.21141073     0.20100
C642        C  0.06342731  0.54131620  0.15539960    -0.54800
C643        C  0.05088340  0.52015052  0.18854314     0.09200
C644        C  0.12521472  0.55930547  0.18963340    -0.54300
C645        C  0.11216661  0.53828263  0.22181204     0.09800
H646        H  0.13451544  0.48428553  0.12247874     0.14300
H647        H  0.07646095  0.48636871  0.23852114     0.00000
H648        H  0.04226765  0.55392140  0.13509629     0.14600
H649        H  0.14189250  0.58660424  0.19264735     0.14400
Zn650      Zn  0.04459320  0.44135582  0.42373888     1.49700
Zn651      Zn  0.97159501  0.43990007  0.48058820     1.49400
Zn652      Zn  0.04650110  0.50115969  0.49905725     1.49100
Zn653      Zn  0.98541953  0.50996688  0.42946752     1.49500
O654        O  0.01343168  0.47132839  0.45972137    -1.84400
O655        O  0.03422369  0.38241373  0.43105284    -0.75100
O656        O  0.97208401  0.44808617  0.53731490    -0.74900
O657        O  0.10632459  0.47872233  0.49680328    -0.74400
O658        O  0.98434797  0.38197514  0.47527518    -0.75100
O659        O  0.09900085  0.44213836  0.44250940    -0.74700
O660        O  0.01800494  0.49263757  0.55506557    -0.75300
O661        O  0.98057754  0.55357325  0.46689818    -0.74600
O662        O  0.91776327  0.46322220  0.46942885    -0.75400
O663        O  0.04392336  0.56078646  0.47851992    -0.74800
O664        O  0.92831269  0.50096852  0.41640991    -0.75300
O665        O  0.01929627  0.52653362  0.38311081    -0.75200
O666        O  0.05109265  0.46983946  0.37056693    -0.75000
C667        C  0.01272774  0.36462306  0.45710097     0.76800
C668        C  0.98894862  0.46893382  0.56377791     0.77300
C669        C  0.12098502  0.45554363  0.46995152     0.76300
C670        C  0.01107865  0.57536125  0.46611245     0.76700
C671        C  0.90624721  0.48977291  0.44509940     0.77800
C672        C  0.04383111  0.50635627  0.36247848     0.76800
C673        C  0.09551667  0.14975169  0.53632900     0.86200
C674        C  0.08419099  0.19459921  0.54235354    -0.54000
C675        C  0.06586080  0.21125017  0.51009358     0.09100
C676        C  0.06018458  0.18228288  0.47591538     0.20100
C677        C  0.05508656  0.12982945  0.52525608    -0.54800
C678        C  0.03610473  0.14796215  0.49369795     0.09200
C679        C  0.12025674  0.14914636  0.49757882    -0.54300
C680        C  0.10141219  0.16649209  0.46641265     0.09800
H681        H  0.08865013  0.21106547  0.56980617     0.14300
H682        H  0.04600719  0.19635038  0.44961695     0.00000
H683        H  0.04154558  0.10631917  0.54287402     0.14600
H684        H  0.14997577  0.13695276  0.49528254     0.14400
C685        C  0.35916385  0.90042057  0.91562568     0.86200
C686        C  0.32030610  0.88119509  0.93182929    -0.54000
C687        C  0.30205279  0.90248084  0.96141205     0.09100
C688        C  0.32572985  0.93918886  0.97406387     0.20100
C689        C  0.34635279  0.94416506  0.90489628    -0.54800
C690        C  0.32920274  0.96466121  0.93648268     0.09200
C691        C  0.38582074  0.90633384  0.95267952    -0.54300
C692        C  0.36778417  0.92551895  0.98301850     0.09800
H693        H  0.30539898  0.85636723  0.91738083     0.14300
H694        H  0.31170588  0.95466079  0.99972578     0.00000
H695        H  0.35136562  0.95746214  0.87589925     0.14600
H696        H  0.41591881  0.89524471  0.95547500     0.14400
Zn697      Zn  0.06319696  0.95550974  0.00956193     1.49700
Zn698      Zn  0.07181886  0.99218967  0.92977267     1.49400
Zn699      Zn  0.99060900  0.95146888  0.94604330     1.49100
Zn700      Zn  0.01456665  0.02900595  0.99466609     1.49500
O701        O  0.03404170  0.98201832  0.97029081    -1.84400
O702        O  0.12324969  0.95744344  0.00616850    -0.75100
O703        O  0.05720975  0.95927663  0.88385710    -0.74900
O704        O  0.00352609  0.89049206  0.95738514    -0.74400
O705        O  0.12627006  0.97526539  0.94293686    -0.75100
O706        O  0.05431315  0.90097854  0.99812925    -0.74700
O707        O  0.99297439  0.96788669  0.88690408    -0.75300
O708        O  0.95832646  0.03571294  0.98233874    -0.74600
O709        O  0.06591822  0.04844440  0.91330541    -0.75400
O710        O  0.93671843  0.97506115  0.96599329    -0.74800
O711        O  0.03881926  0.07693645  0.96737511    -0.75300
O712        O  0.00704333  0.02085531  0.05462578    -0.75200
O713        O  0.03552458  0.96170821  0.06073144    -0.75000
C714        C  0.14249860  0.96032821  0.97341919     0.76800
C715        C  0.02546868  0.97046404  0.86745424     0.77300
C716        C  0.03204221  0.87731845  0.97922254     0.76300
C717        C  0.93014168  0.01149771  0.97572494     0.76700
C718        C  0.05171257  0.07843917  0.93141597     0.77800
C719        C  0.01121571  0.98777047  0.07294595     0.76800
C720        C  0.96083948  0.90133807  0.28353659     0.86200
C721        C  0.97668707  0.94005925  0.30340043    -0.54000
C722        C  0.99884911  0.96376030  0.27866582     0.09100
C723        C  0.00420142  0.94647922  0.23687229     0.20100
C724        C  0.93917771  0.91622789  0.24536211    -0.54800
C725        C  0.96220948  0.93980005  0.22126233     0.09200
C726        C  0.99911361  0.88095486  0.26728202    -0.54300
C727        C  0.02153019  0.90497065  0.24271539     0.09800
H728        H  0.96915949  0.94925093  0.33350103     0.14300
H729        H  0.02257510  0.96566803  0.21692894     0.00000
H730        H  0.90879825  0.90834112  0.23775314     0.14600
H731        H  0.00836858  0.85120768  0.27556540     0.14400
C732        C  0.96718125  0.28754741  0.89378044     0.86200
C733        C  0.94862106  0.26893323  0.93230773    -0.54000
C734        C  0.97485718  0.24673194  0.95448615     0.09100
C735        C  0.01623640  0.24525467  0.93576185     0.20100
C736        C  0.00377691  0.31109579  0.90928672    -0.54800
C737        C  0.02885728  0.28873584  0.93169225     0.09200
C738        C  0.98473676  0.25181303  0.87105997    -0.54300
C739        C  0.01051393  0.22999267  0.89310052     0.09800
H740        H  0.91852678  0.27504271  0.94223843     0.14300
H741        H  0.03782303  0.22745853  0.95305929     0.00000
H742        H  0.00970391  0.34220246  0.90250347     0.14600
H743        H  0.97645511  0.24365303  0.84086641     0.14400
Zn744      Zn  0.26871838  0.26565296  0.93178606     1.49700
Zn745      Zn  0.24593081  0.20211172  0.00304317     1.49400
Zn746      Zn  0.30909613  0.18698569  0.93705299     1.49100
Zn747      Zn  0.32842712  0.25283805  0.99745927     1.49500
O748        O  0.28661852  0.22798208  0.96899702    -1.84400
O749        O  0.21367212  0.27054595  0.94265121    -0.75100
O750        O  0.25353839  0.13974437  0.99415091    -0.74900
O751        O  0.32030992  0.20178914  0.88116840    -0.74400
O752        O  0.19142806  0.22704396  0.98720856    -0.75100
O753        O  0.26871578  0.24189147  0.87634220    -0.74700
O754        O  0.26900702  0.14459808  0.93059052    -0.75300
O755        O  0.37690803  0.21794568  0.99966814    -0.74600
O756        O  0.25669156  0.21891250  0.06187646    -0.75400
O757        O  0.35555299  0.16466780  0.96601287    -0.74800
O758        O  0.31324981  0.25137357  0.05214051    -0.75300
O759        O  0.32705699  0.31335169  0.99445805    -0.75200
O760        O  0.28340164  0.32214040  0.94589844    -0.75000
C761        C  0.18568567  0.25605191  0.96298078     0.76800
C762        C  0.26331323  0.12320255  0.96094238     0.77300
C763        C  0.29075910  0.21473411  0.86181000     0.76300
C764        C  0.37962452  0.18110853  0.99024899     0.76700
C765        C  0.28587131  0.23971405  0.07508998     0.77800
C766        C  0.30149631  0.33494596  0.97678177     0.76800
Zn767      Zn  0.25125317  0.95249228  0.17070537     1.49700
Zn768      Zn  0.30954736  0.01285514  0.19959981     1.49400
Zn769      Zn  0.23020348  0.01207637  0.23750735     1.49100
Zn770      Zn  0.29651492  0.94310940  0.25596293     1.49500
O771        O  0.26977409  0.97760710  0.21782623    -1.84400
O772        O  0.28878264  0.96051313  0.12425168    -0.75100
O773        O  0.28934365  0.06443540  0.18254273    -0.74900
O774        O  0.17767828  0.99023494  0.22070408    -0.74400
O775        O  0.33998000  0.98756891  0.15653785    -0.75100
O776        O  0.19141362  0.95287162  0.16747278    -0.74700
O777        O  0.24753631  0.06970986  0.23293000    -0.75300
O778        O  0.27077079  0.95775308  0.31274184    -0.74600
O779        O  0.34542359  0.02266094  0.24407761    -0.75400
O780        O  0.22783463  0.00480548  0.29501370    -0.74800
O781        O  0.35797856  0.95883078  0.24784390    -0.75300
O782        O  0.28423072  0.88357848  0.23684200    -0.75200
O783        O  0.25644845  0.89619137  0.17817486    -0.75000
C784        C  0.32587468  0.96870262  0.12706420     0.76800
C785        C  0.27502858  0.08437451  0.21108137     0.77300
C786        C  0.16872404  0.96229484  0.19652606     0.76300
C787        C  0.24354619  0.98332415  0.32155020     0.76700
C788        C  0.37047652  0.99494341  0.24371693     0.77800
C789        C  0.26785355  0.87180939  0.20415652     0.76800
Zn790      Zn  0.04414701  0.19634361  0.19748289     1.49700
Zn791      Zn  0.04998127  0.26895107  0.25326199     1.49400
Zn792      Zn  0.97572432  0.26527282  0.20288795     1.49100
Zn793      Zn  0.98568104  0.20970909  0.27476477     1.49500
O794        O  0.01251230  0.23306473  0.23042932    -1.84400
O795        O  0.10407296  0.20734494  0.21454403    -0.75100
O796        O  0.03023105  0.32382103  0.25573574    -0.74900
O797        O  0.97735823  0.24838929  0.14773169    -0.74400
O798        O  0.09642943  0.27173821  0.21823635    -0.75100
O799        O  0.02575716  0.20520784  0.13698988    -0.74700
O800        O  0.99764499  0.32155471  0.19902577    -0.75300
O801        O  0.92582410  0.21152079  0.27009215    -0.74600
O802        O  0.07032106  0.24579920  0.30367254    -0.75400
O803        O  0.91904884  0.25125504  0.21751627    -0.74800
O804        O  0.01597099  0.21532276  0.32648311    -0.75300
O805        O  0.99255255  0.15370715  0.26897007    -0.75200
O806        O  0.03131461  0.13932897  0.21743848    -0.75000
C807        C  0.11835979  0.24183167  0.22304811     0.76800
C808        C  0.02251189  0.33883094  0.22187530     0.77300
C809        C  0.99700405  0.22692143  0.12400089     0.76300
C810        C  0.90494250  0.22536604  0.24165298     0.76700
C811        C  0.05298669  0.22370423  0.32910915     0.77800
C812        C  0.01036120  0.12866420  0.24763075     0.76800
C813        C  0.33801176  0.29142051  0.30367156     0.86200
C814        C  0.33026335  0.30878016  0.26119851    -0.54000
C815        C  0.30734379  0.28444729  0.23752737     0.09100
C816        C  0.29337581  0.24670058  0.25807139     0.20100
C817        C  0.29467006  0.28354478  0.31985512    -0.54800
C818        C  0.27160361  0.26014579  0.29505951     0.09200
C819        C  0.35492215  0.24925501  0.29488090    -0.54300
C820        C  0.33101441  0.22653177  0.27135729     0.09800
H821        H  0.34277088  0.33660510  0.25036771     0.14300
H822        H  0.27470617  0.22709356  0.23884327     0.00000
H823        H  0.28239112  0.29779055  0.34613282     0.14600
H824        H  0.38344258  0.23855066  0.30516515     0.14400
C825        C  0.67627768  0.07587076  0.07555363     0.86200
C826        C  0.64494473  0.04997883  0.09759459    -0.54000
C827        C  0.62039410  0.06941165  0.12368137     0.09100
C828        C  0.62795943  0.11579925  0.12245977     0.20100
C829        C  0.65149839  0.10706676  0.05386291    -0.54800
C830        C  0.62500833  0.12779495  0.07721336     0.09200
C831        C  0.69724002  0.09998077  0.10863014    -0.54300
C832        C  0.67300400  0.12177418  0.13354858     0.09800
H833        H  0.64338070  0.01820240  0.09291788     0.14300
H834        H  0.60730933  0.13264981  0.14194914     0.00000
H835        H  0.65345230  0.10989618  0.02190464     0.14600
H836        H  0.72929788  0.10057266  0.11057116     0.14400
C837        C  0.67896081  0.63109228  0.63043704     0.86200
C838        C  0.70356963  0.59967951  0.60764840    -0.54000
C839        C  0.68257204  0.57518539  0.58211550     0.09100
C840        C  0.63654956  0.58249009  0.58546775     0.20100
C841        C  0.65499404  0.65169429  0.59771778    -0.54800
C842        C  0.63148396  0.62768811  0.57460991     0.09200
C843        C  0.64793221  0.60627952  0.65344357    -0.54300
C844        C  0.62642866  0.57899425  0.63141915     0.09800
H845        H  0.73560098  0.59777183  0.61062400     0.14300
H846        H  0.61853815  0.56213958  0.56658820     0.00000
H847        H  0.65686924  0.68348509  0.59406075     0.14600
H848        H  0.64435844  0.61035141  0.68516537     0.14400
C849        C  0.17270276  0.21602852  0.26747417    -0.20600
C850        C  0.15709475  0.24752700  0.24489478    -0.07200
C851        C  0.17620585  0.28541789  0.24793199     0.13700
C852        C  0.20971548  0.29049417  0.27264556    -0.20700
C853        C  0.22726065  0.25830658  0.29221773    -0.07200
C854        C  0.20745831  0.22087768  0.29056997     0.13700
C855        C  0.22325187  0.18509937  0.31205813    -0.24000
H856        H  0.15794428  0.18721600  0.26696302     0.15000
H857        H  0.22548821  0.31879664  0.27237345     0.15000
C858        C  0.16418177  0.32006334  0.22230294    -0.24000
H859        H  0.20002886  0.17309048  0.33247416     0.05200
H860        H  0.24964870  0.19265331  0.33025919     0.08400
H861        H  0.23137051  0.16172669  0.29012316     0.08400
H862        H  0.13514374  0.33130591  0.23245880     0.08400
H863        H  0.16237732  0.31078851  0.19059624     0.08400
H864        H  0.18592438  0.34503935  0.22397654     0.05200
C865        C  0.30431689  0.12226406  0.26660450    -0.20600
C866        C  0.29706214  0.11971236  0.22534547    -0.07200
C867        C  0.31555527  0.14751027  0.19953045     0.13700
C868        C  0.33606877  0.17998810  0.21618052    -0.20700
C869        C  0.33760730  0.18555912  0.25768527    -0.07200
C870        C  0.32515450  0.15457328  0.28292799     0.13700
C871        C  0.33217823  0.15678231  0.32721189    -0.24000
H872        H  0.29328113  0.09906115  0.28629418     0.15000
H873        H  0.34645680  0.20371874  0.19686539     0.15000
C874        C  0.31165044  0.14472486  0.15484660    -0.24000
H875        H  0.32009235  0.13014338  0.34284042     0.05200
H876        H  0.31793820  0.18357109  0.34012090     0.08400
H877        H  0.36464101  0.15849520  0.33290922     0.08400
H878        H  0.27974682  0.14423180  0.14647705     0.08400
H879        H  0.32630517  0.11734176  0.14373219     0.08400
H880        H  0.32602191  0.17047687  0.13963372     0.05200
C881        C  0.32773436  0.26545232  0.13009053    -0.20600
C882        C  0.28951216  0.25353318  0.11701013    -0.07200
C883        C  0.25663061  0.26035176  0.14217492     0.13700
C884        C  0.26310126  0.27759473  0.17973123    -0.20700
C885        C  0.30149960  0.28657034  0.19385190    -0.07200
C886        C  0.33411602  0.28178900  0.16796805     0.13700
C887        C  0.37602902  0.29129370  0.18091333    -0.24000
H888        H  0.35329696  0.26103955  0.11085884     0.15000
H889        H  0.23825996  0.28072599  0.19966551     0.15000
C890        C  0.21490123  0.24907817  0.13022513    -0.24000
H891        H  0.39798216  0.28525223  0.15687551     0.05200
H892        H  0.38416667  0.27284540  0.20704026     0.08400
H893        H  0.37848403  0.32332899  0.18882007     0.08400
H894        H  0.21296411  0.21646486  0.12496610     0.08400
H895        H  0.20648214  0.26531972  0.10274427     0.08400
H896        H  0.19293874  0.25647088  0.15382174     0.05200
C897        C  0.99698878  0.19864435  0.05447992    -0.20600
C898        C  0.98518843  0.22887356  0.08075658    -0.07200
C899        C  0.96121886  0.26041093  0.06504864     0.13700
C900        C  0.95423090  0.26280086  0.02380738    -0.20700
C901        C  0.96949953  0.23465221  0.99730908    -0.07200
C902        C  0.98831112  0.20054234  0.01345826     0.13700
C903        C  0.99900057  0.16528032  0.98818693    -0.24000
H904        H  0.01298871  0.17320714  0.06592294     0.15000
H905        H  0.93936191  0.28870188  0.01187766     0.15000
C906        C  0.94384149  0.29320529  0.09044001    -0.24000
H907        H  0.03178410  0.16179314  0.98720454     0.05200
H908        H  0.98537226  0.13788790  0.00099383     0.08400
H909        H  0.98737996  0.16840503  0.95763165     0.08400
H910        H  0.96780607  0.30934228  0.10621975     0.08400
H911        H  0.92225031  0.28056787  0.11210519     0.08400
H912        H  0.92752994  0.31554410  0.07251010     0.05200
C913        C  0.09688528  0.30730595  0.91586787    -0.20600
C914        C  0.06851233  0.30113197  0.94556773    -0.07200
C915        C  0.08100401  0.28989291  0.98400762     0.13700
C916        C  0.11954662  0.27554238  0.98936725    -0.20700
C917        C  0.14647219  0.27491266  0.95748863    -0.07200
C918        C  0.13588792  0.29405010  0.92095697     0.13700
C919        C  0.16354586  0.29703310  0.88539756    -0.24000
H920        H  0.08721006  0.31702838  0.88666076     0.15000
H921        H  0.12828607  0.26426068  0.01828846     0.15000
C922        C  0.05351160  0.29156235  0.01926058    -0.24000
H923        H  0.14862874  0.30989884  0.85891972     0.05200
H924        H  0.17418869  0.26695617  0.87681927     0.08400
H925        H  0.18910929  0.31688678  0.89241650     0.08400
H926        H  0.04918837  0.26121194  0.03150630     0.08400
H927        H  0.02435634  0.30438597  0.01114178     0.08400
H928        H  0.06677089  0.31084431  0.04269622     0.05200
C929        C  0.97400202  0.03105800  0.29308403    -0.20600
C930        C  0.00675442  0.00673609  0.28550840    -0.07200
C931        C  0.04242949  0.02444079  0.27181341     0.13700
C932        C  0.04248722  0.06380197  0.25839540    -0.20700
C933        C  0.00829105  0.08699310  0.26134548    -0.07200
C934        C  0.97418325  0.07115103  0.28130067     0.13700
C935        C  0.93637155  0.09463021  0.28660890    -0.24000
H936        H  0.94667654  0.01766953  0.30410981     0.15000
H937        H  0.06965909  0.07665794  0.24636023     0.15000
C938        C  0.08087429  0.00243026  0.27151808    -0.24000
H939        H  0.91179326  0.07595680  0.29879461     0.05200
H940        H  0.92651245  0.10651311  0.25740846     0.08400
H941        H  0.94116685  0.11945329  0.30794767     0.08400
H942        H  0.09091505  0.99820680  0.24030246     0.08400
H943        H  0.07763032  0.97344079  0.28683522     0.08400
H944        H  0.10374722  0.01982988  0.28797668     0.05200
C945        C  0.09289293  0.90282477  0.25679764    -0.20600
C946        C  0.06282851  0.89762791  0.22864750    -0.07200
C947        C  0.07262735  0.90323681  0.18800118     0.13700
C948        C  0.10790770  0.92331974  0.17735591    -0.20700
C949        C  0.13418705  0.93647623  0.20678471    -0.07200
C950        C  0.12862199  0.92226353  0.24642718     0.13700
C951        C  0.15920345  0.92900827  0.27855947    -0.24000
H952        H  0.08634776  0.89695072  0.28792907     0.15000
H953        H  0.11387106  0.93023204  0.14633160     0.15000
C954        C  0.04588169  0.88901353  0.15544820    -0.24000
H955        H  0.15120530  0.91295712  0.30641050     0.05200
H956        H  0.16125920  0.96110252  0.28608069     0.08400
H957        H  0.18862170  0.91800289  0.26842999     0.08400
H958        H  0.06169359  0.86663194  0.13698244     0.08400
H959        H  0.01836449  0.87492361  0.16733488     0.08400
H960        H  0.03858699  0.91466630  0.13636106     0.05200
C961        C  0.07472487  0.14299775  0.90431565    -0.20600
C962        C  0.04472566  0.11446734  0.90830225    -0.07200
C963        C  0.00680466  0.12143323  0.89171898     0.13700
C964        C  0.99761129  0.15976545  0.87836221    -0.20700
C965        C  0.02571396  0.19049450  0.88168273    -0.07200
C966        C  0.06563637  0.18085069  0.88983114     0.13700
C967        C  0.09855111  0.21068496  0.88545663    -0.24000
H968        H  0.10458615  0.13652662  0.91437074     0.15000
H969        H  0.96713731  0.16681089  0.87084739     0.15000
C970        C  0.97523247  0.08938043  0.89090045    -0.24000
H971        H  0.12153340  0.19893749  0.86482233     0.05200
H972        H  0.08765449  0.23908841  0.87288516     0.08400
H973        H  0.11216210  0.21581800  0.91500862     0.08400
H974        H  0.96776521  0.08019747  0.92172149     0.08400
H975        H  0.98622853  0.06323949  0.87392464     0.08400
H976        H  0.94752286  0.09984309  0.87649817     0.05200
C977        C  0.95415568  0.92665403  0.14965950    -0.20600
C978        C  0.95200633  0.95424519  0.18076521    -0.07200
C979        C  0.95713760  0.99496612  0.17147451     0.13700
C980        C  0.97521588  0.00613611  0.13542020    -0.20700
C981        C  0.98551444  0.97719620  0.10740602    -0.07200
C982        C  0.97005419  0.93784679  0.11244876     0.13700
C983        C  0.97178311  0.90694204  0.07971482    -0.24000
H984        H  0.94796731  0.89550831  0.15577468     0.15000
H985        H  0.98277459  0.03713752  0.13010408     0.15000
C986        C  0.94446511  0.02697950  0.19950870    -0.24000
H987        H  0.95537549  0.87935494  0.08816478     0.05200
H988        H  0.00287915  0.89821769  0.07333251     0.08400
H989        H  0.95794563  0.91889854  0.05225390     0.08400
H990        H  0.97069731  0.04549644  0.20667474     0.08400
H991        H  0.93082593  0.01448027  0.22696426     0.08400
H992        H  0.92203380  0.04605683  0.18482478     0.05200
C993        C  0.32253664  0.02839349  0.97397956    -0.20600
C994        C  0.31454283  0.00709824  0.93858196    -0.07200
C995        C  0.28762987  0.02409677  0.91119607     0.13700
C996        C  0.26855475  0.06037778  0.92087532    -0.20700
C997        C  0.27556993  0.08060712  0.95719210    -0.07200
C998        C  0.30341248  0.06423603  0.98376634     0.13700
C999        C  0.31435320  0.08512481  0.02200200    -0.24000
H1000       H  0.34371036  0.01649389  0.99483597     0.15000
H1001       H  0.24886468  0.07380919  0.89928713     0.15000
C1002       C  0.27926049  0.00486180  0.87156806    -0.24000
H1003       H  0.33858694  0.06964567  0.03759522     0.05200
H1004       H  0.28811415  0.08629463  0.04211860     0.08400
H1005       H  0.32508640  0.11576376  0.01590287     0.08400
H1006       H  0.26860713  0.97393989  0.87580557     0.08400
H1007       H  0.30673667  0.00477440  0.85320104     0.08400
H1008       H  0.25618718  0.02120845  0.85470377     0.05200
C1009       C  0.23781812  0.91605182  0.92990346    -0.20600
C1010       C  0.25812322  0.90535732  0.96451421    -0.07200
C1011       C  0.23889259  0.90955449  0.00172883     0.13700
C1012       C  0.20168397  0.92813119  0.00377481    -0.20700
C1013       C  0.18286739  0.94258730  0.96939664    -0.07200
C1014       C  0.20091700  0.93506860  0.93156084     0.13700
C1015       C  0.18238960  0.94692100  0.89238033    -0.24000
H1016       H  0.25232621  0.91197482  0.90131347     0.15000
H1017       H  0.18745496  0.93164976  0.03258619     0.15000
C1018       C  0.25733991  0.89404211  0.03930255    -0.24000
H1019       H  0.20091443  0.93806460  0.86639814     0.05200
H1020       H  0.17911945  0.97978544  0.89103291     0.08400
H1021       H  0.15307210  0.93195943  0.88881933     0.08400
H1022       H  0.28548464  0.90994499  0.04515792     0.08400
H1023       H  0.26299204  0.86166707  0.03608357     0.08400
H1024       H  0.23771503  0.89835819  0.06564008     0.05200
C1025       C  0.39221331  0.96723500  0.03711280    -0.20600
C1026       C  0.38315191  0.92863289  0.02370494    -0.07200
C1027       C  0.36846716  0.90034859  0.05109276     0.13700
C1028       C  0.35227358  0.91383496  0.08693913    -0.20700
C1029       C  0.35309641  0.95446490  0.09623721    -0.07200
C1030       C  0.37749034  0.98053851  0.07394245     0.13700
C1031       C  0.38560542  0.02254826  0.08765116    -0.24000
H1032       H  0.40581406  0.98835902  0.01670228     0.15000
H1033       H  0.33625254  0.89313470  0.10605153     0.15000
C1034       C  0.36484160  0.85681832  0.04076686    -0.24000
H1035       H  0.40323001  0.03963962  0.06531539     0.05200
H1036       H  0.40268443  0.02194150  0.11587141     0.08400
H1037       H  0.35726513  0.03825965  0.09331625     0.08400
H1038       H  0.37844262  0.84996521  0.01141552     0.08400
H1039       H  0.33312237  0.84768752  0.04005329     0.08400
H1040       H  0.38035089  0.83890076  0.06366848     0.05200
C1041       C  0.10470190  0.22785154  0.38175598    -0.20600
C1042       C  0.07734946  0.20481786  0.36019932    -0.07200
C1043       C  0.07684392  0.16297151  0.36597990     0.13700
C1044       C  0.09734590  0.14671779  0.39831628    -0.20700
C1045       C  0.11639299  0.17170110  0.42564567    -0.07200
C1046       C  0.12509740  0.21118634  0.41398397     0.13700
C1047       C  0.15298473  0.23702767  0.43749823    -0.24000
H1048       H  0.10863280  0.25919028  0.37487551     0.15000
H1049       H  0.09264017  0.11564968  0.40598659     0.15000
C1050       C  0.05494852  0.13530401  0.33838055    -0.24000
H1051       H  0.17810797  0.24655252  0.41808826     0.05200
H1052       H  0.16532268  0.22085364  0.46347584     0.08400
H1053       H  0.13713934  0.26396401  0.44791642     0.08400
H1054       H  0.06615819  0.13988266  0.30756795     0.08400
H1055       H  0.02261115  0.14102835  0.33990603     0.08400
H1056       H  0.05959033  0.10353379  0.34623935     0.05200
C1057       C  0.01180605  0.25662769  0.49023352    -0.20600
C1058       C  0.05037777  0.25251408  0.50584848    -0.07200
C1059       C  0.07544787  0.28632889  0.50741247     0.13700
C1060       C  0.06294184  0.32189454  0.48918918    -0.20700
C1061       C  0.02507640  0.32506146  0.47160624    -0.07200
C1062       C  0.99864920  0.29255683  0.47377077     0.13700
C1063       C  0.95717027  0.29530872  0.45739696    -0.24000
H1064       H  0.99226276  0.23103623  0.48947583     0.15000
H1065       H  0.08235383  0.34782672  0.48973830     0.15000
C1066       C  0.11489588  0.28525353  0.52855457    -0.24000
H1067       H  0.94107053  0.26657022  0.45998167     0.05200
H1068       H  0.95838524  0.30360655  0.42538633     0.08400
H1069       H  0.94001904  0.31797916  0.47417050     0.08400
H1070       H  0.13372191  0.26096210  0.51682802     0.08400
H1071       H  0.10981423  0.28009865  0.56085151     0.08400
H1072       H  0.13150809  0.31378794  0.52524129     0.05200
C1073       C  0.07239505  0.56971436  0.27241750    -0.20600
C1074       C  0.10946220  0.55310648  0.26310836    -0.07200
C1075       C  0.12882665  0.53085053  0.29259983     0.13700
C1076       C  0.10695348  0.51675817  0.32539234    -0.20700
C1077       C  0.06653306  0.52628001  0.33009801    -0.07200
C1078       C  0.04982035  0.55541777  0.30478773     0.13700
C1079       C  0.00741500  0.56899177  0.30940274    -0.24000
H1080       H  0.05836026  0.58856689  0.25055523     0.15000
H1081       H  0.12123972  0.49726688  0.34665883     0.15000
C1082       C  0.17206676  0.52046846  0.28876485    -0.24000
H1083       H  0.99878597  0.58993757  0.28537619     0.05200
H1084       H  0.00361013  0.58475085  0.33825433     0.08400
H1085       H  0.98696543  0.54289989  0.30807092     0.08400
H1086       H  0.18501082  0.53184738  0.26043621     0.08400
H1087       H  0.17615692  0.48781927  0.29016379     0.08400
H1088       H  0.18868472  0.53404963  0.31393209     0.05200
C1089       C  0.07882128  0.38582196  0.23171364    -0.20600
C1090       C  0.04753806  0.37275908  0.20713429    -0.07200
C1091       C  0.04494072  0.38899990  0.16801162     0.13700
C1092       C  0.07096413  0.42000040  0.15658111    -0.20700
C1093       C  0.09997339  0.43468029  0.18271035    -0.07200
C1094       C  0.10582779  0.41508158  0.21928438     0.13700
C1095       C  0.13847154  0.42727616  0.24736200    -0.24000
H1096       H  0.08274680  0.37301982  0.26107206     0.15000
H1097       H  0.06613800  0.43538981  0.12863131     0.15000
C1098       C  0.01463558  0.37494308  0.13822120    -0.24000
H1099       H  0.15665696  0.40109986  0.25533021     0.05200
H1100       H  0.12521738  0.43960071  0.27506063     0.08400
H1101       H  0.15862429  0.44978054  0.23370467     0.08400
H1102       H  0.98417738  0.37840862  0.15056269     0.08400
H1103       H  0.02061295  0.34335889  0.13080215     0.08400
H1104       H  0.01625230  0.39208311  0.10994497     0.05200
C1105       C  0.46617468  0.05379633  0.22202383    -0.20600
C1106       C  0.48360719  0.03129955  0.19139899    -0.07200
C1107       C  0.46359190  0.99608460  0.17899394     0.13700
C1108       C  0.42860405  0.98329900  0.19868449    -0.20700
C1109       C  0.41163520  0.00547916  0.22987621    -0.07200
C1110       C  0.43044675  0.04190259  0.24088791     0.13700
C1111       C  0.41382618  0.06796299  0.27353948    -0.24000
H1112       H  0.48131292  0.08028019  0.23233979     0.15000
H1113       H  0.41360425  0.95651811  0.18838224     0.15000
C1114       C  0.47844335  0.97125342  0.14484395    -0.24000
H1115       H  0.43413459  0.09319703  0.28070063     0.05200
H1116       H  0.40942980  0.05017916  0.30111302     0.08400
H1117       H  0.38514718  0.08100470  0.26419304     0.08400
H1118       H  0.48606223  0.94109053  0.15571709     0.08400
H1119       H  0.50468625  0.98494756  0.13014861     0.08400
H1120       H  0.45482510  0.96829181  0.12199646     0.05200
C1121       C  0.54350631  0.05142707  0.32251687    -0.20600
C1122       C  0.55769789  0.01515514  0.33768064    -0.07200
C1123       C  0.59505945  0.00105719  0.32380824     0.13700
C1124       C  0.61152634  0.01771500  0.28921242    -0.20700
C1125       C  0.59220141  0.04861317  0.26965420    -0.07200
C1126       C  0.56220218  0.06943220  0.28974402     0.13700
C1127       C  0.54932943  0.10961076  0.27498155    -0.24000
H1128       H  0.51749343  0.06523711  0.33554985     0.15000
H1129       H  0.63635170  0.00319990  0.27463400     0.15000
C1130       C  0.61802301  0.96900861  0.34490083    -0.24000
H1131       H  0.52374795  0.12116200  0.29242435     0.05200
H1132       H  0.54102834  0.10823173  0.24307972     0.08400
H1133       H  0.57451669  0.13096893  0.27796601     0.08400
H1134       H  0.60239993  0.93995460  0.34310126     0.08400
H1135       H  0.62229168  0.97761239  0.37657196     0.08400
H1136       H  0.64796817  0.96485812  0.33149011     0.05200
C1137       C  0.50599893  0.16362260  0.42481041    -0.20600
C1138       C  0.47494710  0.18259141  0.44528510    -0.07200
C1139       C  0.45904923  0.16380727  0.47956473     0.13700
C1140       C  0.47560131  0.12806642  0.49337294    -0.20700
C1141       C  0.50748588  0.10966799  0.47353653    -0.07200
C1142       C  0.52267481  0.12778518  0.43859309     0.13700
C1143       C  0.55570115  0.10879232  0.41511515    -0.24000
H1144       H  0.51752791  0.17721398  0.39799278     0.15000
H1145       H  0.46203907  0.11323176  0.51878303     0.15000
C1146       C  0.42351253  0.17983894  0.50128688    -0.24000
H1147       H  0.56287633  0.12579845  0.38763494     0.05200
H1148       H  0.54692701  0.07845489  0.40589821     0.08400
H1149       H  0.58275790  0.10688060  0.43379546     0.08400
H1150       H  0.40002907  0.15646474  0.50294307     0.08400
H1151       H  0.41059220  0.20553775  0.48553117     0.08400
H1152       H  0.43199407  0.18853266  0.53201981     0.05200
C1153       C  0.50532358  0.39258788  0.17661942    -0.20600
C1154       C  0.48014094  0.41940179  0.19594460    -0.07200
C1155       C  0.47082690  0.45549718  0.17702123     0.13700
C1156       C  0.49108458  0.46652721  0.14220004    -0.20700
C1157       C  0.51928059  0.44134634  0.12429526    -0.07200
C1158       C  0.52444056  0.40259719  0.14062988     0.13700
C1159       C  0.54955648  0.37136133  0.12073836    -0.24000
H1160       H  0.51129130  0.36425280  0.19070711     0.15000
H1161       H  0.48409371  0.49494514  0.12869594     0.15000
C1162       C  0.43934821  0.48277612  0.19283554    -0.24000
H1163       H  0.55121420  0.34362394  0.13866100     0.05200
H1164       H  0.58025651  0.38270512  0.11599886     0.08400
H1165       H  0.53598472  0.36320860  0.09183320     0.08400
H1166       H  0.42483369  0.47053221  0.21993715     0.08400
H1167       H  0.41598638  0.48670847  0.16989692     0.08400
H1168       H  0.45269748  0.51226651  0.19955016     0.05200
C1169       C  0.22964095  0.42578416  0.49322094    -0.20600
C1170       C  0.24351924  0.41479871  0.45487180    -0.07200
C1171       C  0.21652255  0.41663090  0.42277305     0.13700
C1172       C  0.17780925  0.43066689  0.42938418    -0.20700
C1173       C  0.16394580  0.44288825  0.46732509    -0.07200
C1174       C  0.19025448  0.43929797  0.49992591     0.13700
C1175       C  0.17702544  0.44913533  0.54166520    -0.24000
H1176       H  0.25032092  0.42518236  0.51791699     0.15000
H1177       H  0.15825237  0.43282173  0.40389405     0.15000
C1178       C  0.22867390  0.40613458  0.38070633    -0.24000
H1179       H  0.20086929  0.44349426  0.56371765     0.05200
H1180       H  0.15094552  0.43035161  0.54987244     0.08400
H1181       H  0.16888557  0.48105856  0.54364112     0.08400
H1182       H  0.23697637  0.37426051  0.37904884     0.08400
H1183       H  0.25405678  0.42512158  0.37102235     0.08400
H1184       H  0.20414532  0.41073638  0.35915520     0.05200
C1185       C  0.02691224  0.68321374  0.43269572    -0.20600
C1186       C  0.98954650  0.69203303  0.41593502    -0.07200
C1187       C  0.96264545  0.66048379  0.40945501     0.13700
C1188       C  0.97152587  0.62265105  0.42496939    -0.20700
C1189       C  0.00679264  0.61528598  0.44684634    -0.07200
C1190       C  0.03575073  0.64571410  0.44871952     0.13700
C1191       C  0.07507503  0.63990361  0.46919449    -0.24000
H1192       H  0.04821438  0.70686973  0.43682119     0.15000
H1193       H  0.94984203  0.59897075  0.42095944     0.15000
C1194       C  0.92388422  0.66682597  0.38804837    -0.24000
H1195       H  0.09367397  0.66738694  0.46850223     0.05200
H1196       H  0.09200523  0.61600557  0.45396712     0.08400
H1197       H  0.07006646  0.63184592  0.50091926     0.08400
H1198       H  0.92994407  0.67656829  0.35699675     0.08400
H1199       H  0.90597771  0.68983876  0.40338871     0.08400
H1200       H  0.90578965  0.63904739  0.38667349     0.05200
C1201       C  0.73015056  0.90870327  0.47613582    -0.20600
C1202       C  0.74167775  0.89915061  0.43663666    -0.07200
C1203       C  0.71168021  0.89745291  0.40733166     0.13700
C1204       C  0.67282813  0.90960652  0.41728824    -0.20700
C1205       C  0.66259399  0.92429081  0.45559063    -0.07200
C1206       C  0.69159280  0.92210313  0.48579529     0.13700
C1207       C  0.68232217  0.93368103  0.52819131    -0.24000
H1208       H  0.75245772  0.90854563  0.49932621     0.15000
H1209       H  0.65046998  0.90875490  0.39420514     0.15000
C1210       C  0.72029800  0.88432940  0.36517692    -0.24000
H1211       H  0.70807251  0.92873289  0.54819511     0.05200
H1212       H  0.65696684  0.91553720  0.53952006     0.08400
H1213       H  0.67473935  0.96576475  0.52968834     0.08400
H1214       H  0.73021178  0.85287546  0.36518851     0.08400
H1215       H  0.74361600  0.90344585  0.35146821     0.08400
H1216       H  0.69349874  0.88601788  0.34601770     0.05200
C1217       C  0.61802333  0.28799349  0.46738314    -0.20600
C1218       C  0.63256480  0.24908688  0.46085699    -0.07200
C1219       C  0.61386642  0.22572179  0.43105134     0.13700
C1220       C  0.57953015  0.24017568  0.41194234    -0.20700
C1221       C  0.56232725  0.27673021  0.42259401    -0.07200
C1222       C  0.58377794  0.30214182  0.44813533     0.13700
C1223       C  0.56963819  0.34398502  0.45580097    -0.24000
H1224       H  0.63315475  0.30748946  0.48819247     0.15000
H1225       H  0.56436064  0.22160290  0.39050433     0.15000
C1226       C  0.62963851  0.18557756  0.41930947    -0.24000
H1227       H  0.58951416  0.36014812  0.47677190     0.05200
H1228       H  0.53919000  0.34379820  0.46860146     0.08400
H1229       H  0.56916245  0.36064379  0.42723413     0.08400
H1230       H  0.62666129  0.16466215  0.44474230     0.08400
H1231       H  0.66135258  0.18816517  0.41084801     0.08400
H1232       H  0.61354235  0.17302524  0.39333469     0.05200
C1233       C  0.83806121  0.03211944  0.42814298    -0.20600
C1234       C  0.80957313  0.00741630  0.41032495    -0.07200
C1235       C  0.76971379  0.02049996  0.40811032     0.13700
C1236       C  0.75892675  0.05687544  0.42574974    -0.20700
C1237       C  0.78719151  0.08062814  0.44527059    -0.07200
C1238       C  0.82744972  0.06856975  0.44543925     0.13700
C1239       C  0.85939527  0.09434846  0.46379496    -0.24000
H1240       H  0.86849275  0.02193764  0.43013760     0.15000
H1241       H  0.72862167  0.06733096  0.42308848     0.15000
C1242       C  0.73809967  0.99680252  0.38694861    -0.24000
H1243       H  0.88879098  0.07947825  0.46359809     0.05200
H1244       H  0.85147679  0.10151866  0.49512978     0.08400
H1245       H  0.86245557  0.12237286  0.44665496     0.08400
H1246       H  0.71462151  0.98774343  0.40849132     0.08400
H1247       H  0.75034467  0.96990746  0.37244040     0.08400
H1248       H  0.72454294  0.01535820  0.36328804     0.05200
C1249       C  0.92844728  0.17548888  0.50266941    -0.20600
C1250       C  0.91976144  0.18477059  0.46262113    -0.07200
C1251       C  0.94566499  0.17050441  0.43269412     0.13700
C1252       C  0.98145384  0.15176881  0.44396420    -0.20700
C1253       C  0.99247382  0.14742123  0.48440509    -0.07200
C1254       C  0.96416175  0.15735514  0.51399346     0.13700
C1255       C  0.97229105  0.15209967  0.55784656    -0.24000
H1256       H  0.90757552  0.18388490  0.52584412     0.15000
H1257       H  0.00280617  0.14389981  0.42103815     0.15000
C1258       C  0.93700914  0.17690882  0.38919910    -0.24000
H1259       H  0.99862251  0.17005003  0.56677550     0.05200
H1260       H  0.97722957  0.12013962  0.56443326     0.08400
H1261       H  0.94690674  0.16199650  0.57657915     0.08400
H1262       H  0.93394377  0.20924557  0.38309141     0.08400
H1263       H  0.90912989  0.16110169  0.38095066     0.08400
H1264       H  0.96113997  0.16524205  0.36991704     0.05200
C1265       C  0.81033097  0.28130823  0.66562360    -0.20600
C1266       C  0.83493718  0.25660254  0.68805811    -0.07200
C1267       C  0.84271624  0.21775899  0.67371607     0.13700
C1268       C  0.82383010  0.20386112  0.63886723    -0.20700
C1269       C  0.79665290  0.22768018  0.61828912    -0.07200
C1270       C  0.79068043  0.26720930  0.63159603     0.13700
C1271       C  0.76422058  0.29507089  0.60905324    -0.24000
H1272       H  0.80422793  0.31107672  0.67652473     0.15000
H1273       H  0.83120942  0.17479562  0.62693407     0.15000
C1274       C  0.87117398  0.19110426  0.69507830    -0.24000
H1275       H  0.76081734  0.32421127  0.62438638     0.05200
H1276       H  0.73445400  0.28123668  0.60543787     0.08400
H1277       H  0.77709574  0.30068073  0.57924918     0.08400
H1278       H  0.85976173  0.18510492  0.72524129     0.08400
H1279       H  0.90072408  0.20588601  0.69714265     0.08400
H1280       H  0.87483913  0.16209108  0.67957586     0.05200
C1281       C  0.81744043  0.92342326  0.56563576    -0.20600
C1282       C  0.82025656  0.96458213  0.57347753    -0.07200
C1283       C  0.84528568  0.98819538  0.54904828     0.13700
C1284       C  0.86138066  0.97133050  0.51405805    -0.20700
C1285       C  0.85337438  0.93150058  0.50343813    -0.07200
C1286       C  0.83429171  0.90657676  0.53130381     0.13700
C1287       C  0.82911179  0.86267305  0.52312927    -0.24000
H1288       H  0.80072683  0.90447445  0.58582812     0.15000
H1289       H  0.87677169  0.99033278  0.49293084     0.15000
C1290       C  0.85304731  0.03143136  0.55822606    -0.24000
H1291       H  0.81367969  0.84725783  0.54812183     0.05200
H1292       H  0.85874965  0.84883697  0.51906295     0.08400
H1293       H  0.81133591  0.85788357  0.49572776     0.08400
H1294       H  0.86800985  0.03425027  0.58754456     0.08400
H1295       H  0.82458887  0.04798116  0.55881309     0.08400
H1296       H  0.87288680  0.04533059  0.53561477     0.05200
C1297       C  0.80070767  0.12480063  0.76362258    -0.20600
C1298       C  0.76124040  0.12387592  0.74955133    -0.07200
C1299       C  0.73456679  0.15308107  0.76314271     0.13700
C1300       C  0.74967241  0.18577412  0.78469042    -0.20700
C1301       C  0.79065307  0.18988273  0.79263622    -0.07200
C1302       C  0.81532634  0.15688989  0.78621742     0.13700
C1303       C  0.85719848  0.15600254  0.80210903    -0.24000
H1304       H  0.82030265  0.10021588  0.75682825     0.15000
H1305       H  0.73025243  0.21041772  0.79125582     0.15000
C1306       C  0.69103012  0.15123213  0.75304111    -0.24000
H1307       H  0.87254955  0.12799699  0.79378889     0.05200
H1308       H  0.85628941  0.15791246  0.83513581     0.08400
H1309       H  0.87515507  0.18133105  0.79058848     0.08400
H1310       H  0.67737494  0.12404130  0.76618218     0.08400
H1311       H  0.68721224  0.15074381  0.72018426     0.08400
H1312       H  0.67481452  0.17730728  0.76511589     0.05200
C1313       C  0.81658438  0.17768891  0.18730338    -0.20600
C1314       C  0.79197559  0.16631582  0.21911833    -0.07200
C1315       C  0.80656512  0.17142961  0.25831930     0.13700
C1316       C  0.84245907  0.19200302  0.26504044    -0.20700
C1317       C  0.86532888  0.20684692  0.23332329    -0.07200
C1318       C  0.85315042  0.19739512  0.19376848     0.13700
C1319       C  0.87883316  0.20696637  0.15804672    -0.24000
H1320       H  0.80615591  0.17303003  0.15711931     0.15000
H1321       H  0.85269799  0.19626272  0.29538185     0.15000
C1322       C  0.78509227  0.15500698  0.29375417    -0.24000
H1323       H  0.86593366  0.19503347  0.12999228     0.05200
H1324       H  0.90865878  0.19349780  0.16165930     0.08400
H1325       H  0.88169611  0.23970530  0.15467835     0.08400
H1326       H  0.75862655  0.13771887  0.28479631     0.08400
H1327       H  0.77630325  0.18000907  0.31318768     0.08400
H1328       H  0.80492701  0.13481137  0.31057164     0.05200
C1329       C  0.70051715  0.17321092  0.33839519    -0.20600
C1330       C  0.70205046  0.21479684  0.34436381    -0.07200
C1331       C  0.67580840  0.23848232  0.32198879     0.13700
C1332       C  0.65852289  0.22199959  0.28729111    -0.20700
C1333       C  0.66608257  0.18232243  0.27604474    -0.07200
C1334       C  0.68085741  0.15667776  0.30542427     0.13700
C1335       C  0.67774662  0.11210081  0.30118431    -0.24000
H1336       H  0.71578613  0.15357894  0.35882246     0.15000
H1337       H  0.64211965  0.24084847  0.26716495     0.15000
C1338       C  0.66658313  0.28050643  0.33414195    -0.24000
H1339       H  0.70750102  0.09818990  0.30121643     0.05200
H1340       H  0.66040371  0.09988516  0.32667458     0.08400
H1341       H  0.66219750  0.10345165  0.27335864     0.08400
H1342       H  0.69425729  0.29863290  0.33484923     0.08400
H1343       H  0.65283655  0.28047878  0.36428745     0.08400
H1344       H  0.64506115  0.29443284  0.31348401     0.05200
C1345       C  0.84029727  0.63468990  0.21688424    -0.20600
C1346       C  0.81622842  0.61258704  0.24321508    -0.07200
C1347       C  0.82124621  0.61911026  0.28483050     0.13700
C1348       C  0.84157558  0.65339384  0.29779506    -0.20700
C1349       C  0.85747792  0.68017108  0.27018360    -0.07200
C1350       C  0.86226890  0.66745450  0.23050982     0.13700
C1351       C  0.88951372  0.68884386  0.20208375    -0.24000
H1352       H  0.84142276  0.62708580  0.18548402     0.15000
H1353       H  0.84079936  0.66169186  0.32902957     0.15000
C1354       C  0.80483974  0.59101228  0.31579160    -0.24000
H1355       H  0.91425215  0.66878708  0.19361182     0.05200
H1356       H  0.90242716  0.71626432  0.21550997     0.08400
H1357       H  0.87317432  0.69643086  0.17464503     0.08400
H1358       H  0.81581706  0.56038855  0.31016811     0.08400
H1359       H  0.77209525  0.59142273  0.31477810     0.08400
H1360       H  0.81387187  0.59978298  0.34641757     0.05200
C1361       C  0.62787022  0.44527885  0.28412413    -0.20600
C1362       C  0.63864444  0.43375757  0.24510288    -0.07200
C1363       C  0.61802021  0.40099591  0.22783672     0.13700
C1364       C  0.58397637  0.38530913  0.24706827    -0.20700
C1365       C  0.57062785  0.40025616  0.28380038    -0.07200
C1366       C  0.59517877  0.42768132  0.30409686     0.13700
C1367       C  0.58647248  0.43823843  0.34693072    -0.24000
H1368       H  0.64554561  0.46760934  0.29943520     0.15000
H1369       H  0.56594023  0.36321523  0.23197571     0.15000
C1370       C  0.63052291  0.38330237  0.18851533    -0.24000
H1371       H  0.60773427  0.46093837  0.35842923     0.05200
H1372       H  0.58904316  0.41106234  0.36555074     0.08400
H1373       H  0.55589461  0.44990114  0.35040226     0.08400
H1374       H  0.66050830  0.37005104  0.19106155     0.08400
H1375       H  0.63068546  0.40665566  0.16510568     0.08400
H1376       H  0.61021469  0.35889269  0.17916069     0.05200
C1377       C  0.71145441  0.28363787  0.21437872    -0.20600
C1378       C  0.72633250  0.25954657  0.18357720    -0.07200
C1379       C  0.76125094  0.27219886  0.16348419     0.13700
C1380       C  0.78184587  0.30628405  0.17714958    -0.20700
C1381       C  0.76866424  0.32810378  0.21053626    -0.07200
C1382       C  0.73220316  0.31717479  0.22840659     0.13700
C1383       C  0.71429498  0.34165504  0.26149735    -0.24000
H1384       H  0.68422713  0.27487786  0.22903519     0.15000
H1385       H  0.80797521  0.31650974  0.16099328     0.15000
C1386       C  0.77717806  0.25131220  0.12715192    -0.24000
H1387       H  0.68415515  0.33089377  0.26957581     0.05200
H1388       H  0.71116153  0.37302463  0.25208919     0.08400
H1389       H  0.73366557  0.34049853  0.28817222     0.08400
H1390       H  0.76001252  0.22427692  0.11916534     0.08400
H1391       H  0.80844380  0.24275711  0.13215506     0.08400
H1392       H  0.77638049  0.27198822  0.10135368     0.05200
C1393       C  0.94122403  0.53209681  0.22103585    -0.20600
C1394       C  0.93111185  0.49346562  0.23491651    -0.07200
C1395       C  0.96127402  0.46463753  0.23518383     0.13700
C1396       C  0.99932985  0.47435310  0.21961995    -0.20700
C1397       C  0.00857168  0.51207312  0.20273666    -0.07200
C1398       C  0.97869742  0.54153999  0.20432062     0.13700
C1399       C  0.98523983  0.58304176  0.18831558    -0.24000
H1400       H  0.91845302  0.55480740  0.22096650     0.15000
H1401       H  0.02174820  0.45159913  0.21979903     0.15000
C1402       C  0.95308419  0.42328377  0.25047476    -0.24000
H1403       H  0.96036797  0.60312671  0.19638580     0.05200
H1404       H  0.98677984  0.58229642  0.15533428     0.08400
H1405       H  0.01286049  0.59629343  0.20053600     0.08400
H1406       H  0.92986892  0.40862221  0.23202017     0.08400
H1407       H  0.94283454  0.42482696  0.28193399     0.08400
H1408       H  0.98010061  0.40462405  0.24959174     0.05200
C1409       C  0.80373806  0.53643877  0.44983535    -0.20600
C1410       C  0.80299345  0.54824491  0.49024036    -0.07200
C1411       C  0.83914474  0.55065592  0.51099650     0.13700
C1412       C  0.87292643  0.53266335  0.49434385    -0.20700
C1413       C  0.87147943  0.51387343  0.45679337    -0.07200
C1414       C  0.83786424  0.51927328  0.43274111     0.13700
C1415       C  0.83720472  0.50494708  0.39030630    -0.24000
H1416       H  0.77629068  0.53625487  0.43313383     0.15000
H1417       H  0.90012962  0.53156510  0.51154878     0.15000
C1418       C  0.84154275  0.57028985  0.55133480    -0.24000
H1419       H  0.80894554  0.51285002  0.37557551     0.05200
H1420       H  0.84079036  0.47210484  0.38934980     0.08400
H1421       H  0.86168071  0.51937453  0.37321820     0.08400
H1422       H  0.82075334  0.55596737  0.57273096     0.08400
H1423       H  0.83349007  0.60217293  0.54846561     0.08400
H1424       H  0.87201840  0.56872025  0.56385705     0.05200
C1425       C  0.69368235  0.52125491  0.42120599    -0.20600
C1426       C  0.70129052  0.49199417  0.44966853    -0.07200
C1427       C  0.71705788  0.45543845  0.43572670     0.13700
C1428       C  0.73402572  0.45248170  0.39753078    -0.20700
C1429       C  0.73057056  0.48339876  0.37004770    -0.07200
C1430       C  0.70600396  0.51654220  0.38112579     0.13700
C1431       C  0.69243983  0.54745910  0.35170060    -0.24000
H1432       H  0.68016668  0.54884556  0.43077565     0.15000
H1433       H  0.74888694  0.42523478  0.38885570     0.15000
C1434       C  0.71642065  0.41893357  0.46082036    -0.24000
H1435       H  0.67316172  0.57017455  0.36574254     0.05200
H1436       H  0.67454533  0.53310295  0.32787082     0.08400
H1437       H  0.71827531  0.56315659  0.33868956     0.08400
H1438       H  0.70124584  0.39433550  0.44459773     0.08400
H1439       H  0.69964287  0.42414200  0.48873181     0.08400
H1440       H  0.74745086  0.41027109  0.46691501     0.05200
C1441       C  0.72743305  0.41266826  0.56119414     0.13000
C1442       C  0.75635648  0.44271954  0.56236471    -0.07200
C1443       C  0.79625800  0.43228810  0.55404236     0.13700
C1444       C  0.80477306  0.39558006  0.53585505    -0.20700
C1445       C  0.77409250  0.36885521  0.52655887    -0.07200
C1446       C  0.73555553  0.37595337  0.54268602     0.13700
C1447       C  0.70178929  0.34668719  0.53748852    -0.24000
H1448       H  0.69695793  0.42008209  0.56860934     0.15000
H1449       H  0.83498877  0.38902128  0.52675586     0.15000
C1450       C  0.83000475  0.46047685  0.56212966    -0.24000
H1451       H  0.67465364  0.35616828  0.55380892     0.05200
H1452       H  0.71030675  0.31705609  0.54892419     0.08400
H1453       H  0.69397659  0.34429124  0.50552260     0.08400
H1454       H  0.81949749  0.48802125  0.57681108     0.08400
H1455       H  0.84517569  0.46794691  0.53373920     0.08400
H1456       H  0.85167362  0.44609209  0.58233149     0.05200
C1457       C  0.44853416  0.66304583  0.95073705    -0.20600
C1458       C  0.45802330  0.67127474  0.91070965    -0.07200
C1459       C  0.47952456  0.64276086  0.88914306     0.13700
C1460       C  0.49897134  0.61232603  0.90968202    -0.20700
C1461       C  0.49500007  0.60776206  0.95130611    -0.07200
C1462       C  0.46682961  0.63174686  0.97153420     0.13700
C1463       C  0.45744539  0.62634764  0.01518082    -0.24000
H1464       H  0.43072727  0.68421281  0.96709074     0.15000
H1465       H  0.51771434  0.59225399  0.89286500     0.15000
C1466       C  0.48299328  0.64482271  0.84449121    -0.24000
H1467       H  0.43649911  0.64932765  0.02626010     0.05200
H1468       H  0.48513131  0.62876203  0.03296147     0.08400
H1469       H  0.44316333  0.59683860  0.02014064     0.08400
H1470       H  0.46812323  0.67158198  0.83229422     0.08400
H1471       H  0.46854246  0.61808318  0.83133209     0.08400
H1472       H  0.51460029  0.64505052  0.83520154     0.05200
C1473       C  0.48265142  0.97376792  0.68225288    -0.20600
C1474       C  0.46890463  0.93565643  0.69379290    -0.07200
C1475       C  0.46628512  0.90531650  0.66498867     0.13700
C1476       C  0.47974724  0.91312397  0.62624166    -0.20700
C1477       C  0.49620911  0.95041227  0.61535936    -0.07200
C1478       C  0.49710763  0.98134140  0.64368379     0.13700
C1479       C  0.51328314  0.02208105  0.63365228    -0.24000
H1480       H  0.48521885  0.99692315  0.70453548     0.15000
H1481       H  0.47809508  0.88944260  0.60432094     0.15000
C1482       C  0.45144650  0.86409143  0.67538394    -0.24000
H1483       H  0.51109085  0.04282433  0.65939996     0.05200
H1484       H  0.49627825  0.03496610  0.60852565     0.08400
H1485       H  0.54513221  0.01986198  0.62520675     0.08400
H1486       H  0.42027137  0.86568787  0.68618437     0.08400
H1487       H  0.47032734  0.85082785  0.69889470     0.08400
H1488       H  0.45201899  0.84383663  0.64917689     0.05200
C1489       C  0.56883756  0.88038858  0.71063993    -0.20600
C1490       C  0.56524187  0.87821916  0.75251027    -0.07200
C1491       C  0.59887541  0.88624968  0.77589163     0.13700
C1492       C  0.63135730  0.90573188  0.75827485    -0.20700
C1493       C  0.63077150  0.91661592  0.71778977    -0.07200
C1494       C  0.60083529  0.90106420  0.69292073     0.13700
C1495       C  0.60058293  0.90942910  0.64884402    -0.24000
H1496       H  0.54327451  0.87285530  0.69251783     0.15000
H1497       H  0.65609431  0.91507345  0.77680204     0.15000
C1498       C  0.59840425  0.87873581  0.82016511    -0.24000
H1499       H  0.57409796  0.89609154  0.63413481     0.05200
H1500       H  0.62753817  0.89665851  0.63471623     0.08400
H1501       H  0.60012083  0.94209937  0.64368669     0.08400
H1502       H  0.59260148  0.84662394  0.82583795     0.08400
H1503       H  0.57482643  0.89659396  0.83478479     0.08400
H1504       H  0.62726653  0.88684522  0.83408668     0.05200
C1505       C  0.68969957  0.70842178  0.28264540    -0.20600
C1506       C  0.66742511  0.73938930  0.26643276    -0.07200
C1507       C  0.68107831  0.77923101  0.27174516     0.13700
C1508       C  0.71936061  0.78634323  0.28749612    -0.20700
C1509       C  0.74374767  0.75460374  0.29883952    -0.07200
C1510       C  0.72695758  0.71584006  0.29991362     0.13700
C1511       C  0.74822036  0.68150958  0.31834995    -0.24000
H1512       H  0.67780036  0.67829948  0.28228756     0.15000
H1513       H  0.73169486  0.81626514  0.28699541     0.15000
C1514       C  0.65669831  0.81412470  0.25805730    -0.24000
H1515       H  0.75377777  0.65890846  0.29498829     0.05200
H1516       H  0.72934707  0.66799736  0.34203420     0.08400
H1517       H  0.77656095  0.69098608  0.33228036     0.08400
H1518       H  0.62861700  0.81569787  0.27542643     0.08400
H1519       H  0.64971918  0.81087596  0.22588481     0.08400
H1520       H  0.67278852  0.84283009  0.26227737     0.05200
C1521       C  0.47325519  0.56579596  0.25868243    -0.20600
C1522       C  0.51373414  0.57447266  0.25019559    -0.07200
C1523       C  0.54260600  0.55096299  0.26936333     0.13700
C1524       C  0.53033241  0.51739806  0.29163753    -0.20700
C1525       C  0.49011903  0.50501554  0.29446050    -0.07200
C1526       C  0.46112807  0.53185176  0.28049834     0.13700
C1527       C  0.41715767  0.52560532  0.28677382    -0.24000
H1528       H  0.45025649  0.58502226  0.24714396     0.15000
H1529       H  0.55299580  0.49807070  0.30302656     0.15000
C1530       C  0.58643435  0.55982403  0.26557916    -0.24000
H1531       H  0.40520754  0.55092816  0.30433524     0.05200
H1532       H  0.40155544  0.52488495  0.25771297     0.08400
H1533       H  0.40991654  0.49793761  0.30301092     0.08400
H1534       H  0.59309520  0.58974548  0.27813995     0.08400
H1535       H  0.59552919  0.55867952  0.23375330     0.08400
H1536       H  0.60468578  0.53788897  0.28205031     0.05200
C1537       C  0.48111069  0.73437139  0.06630125    -0.20600
C1538       C  0.52048884  0.72386339  0.07642745    -0.07200
C1539       C  0.54950215  0.72524950  0.04599022     0.13700
C1540       C  0.53850501  0.73770790  0.00716931    -0.20700
C1541       C  0.49926979  0.74968654  0.99774202    -0.07200
C1542       C  0.47028609  0.74780357  0.02826491     0.13700
C1543       C  0.42760770  0.75962559  0.02161217    -0.24000
H1544       H  0.45826921  0.73334642  0.08906376     0.15000
H1545       H  0.56097915  0.73828059  0.98402590     0.15000
C1546       C  0.59199187  0.71460354  0.05438404    -0.24000
H1547       H  0.40848162  0.75245598  0.04774576     0.05200
H1548       H  0.41494850  0.74390073  0.99548731     0.08400
H1549       H  0.42591207  0.79221991  0.01705983     0.08400
H1550       H  0.59354927  0.68321856  0.06463194     0.08400
H1551       H  0.60414628  0.73456797  0.07784419     0.08400
H1552       H  0.61098761  0.71771491  0.02737877     0.05200
C1553       C  0.54398390  0.87230055  0.18019577    -0.20600
C1554       C  0.53638961  0.86322781  0.22065597    -0.07200
C1555       C  0.54804207  0.89139332  0.24968151     0.13700
C1556       C  0.56468100  0.92804480  0.23753462    -0.20700
C1557       C  0.56948842  0.93857679  0.19701174    -0.07200
C1558       C  0.56100030  0.90897952  0.16802982     0.13700
C1559       C  0.56966204  0.91513448  0.12435245    -0.24000
H1560       H  0.53731634  0.85003497  0.15772303     0.15000
H1561       H  0.57299038  0.94927304  0.26029308     0.15000
C1562       C  0.54157822  0.88391750  0.29350927    -0.24000
H1563       H  0.55930969  0.88949816  0.10607401     0.05200
H1564       H  0.60222861  0.91794725  0.11973063     0.08400
H1565       H  0.55468656  0.94206937  0.11304677     0.08400
H1566       H  0.56126248  0.85969785  0.30390259     0.08400
H1567       H  0.51000308  0.87578448  0.29914613     0.08400
H1568       H  0.54828946  0.91077776  0.31151203     0.05200
C1569       C  0.94736232  0.71098394  0.55580392    -0.20600
C1570       C  0.96857332  0.73710089  0.58059461    -0.07200
C1571       C  0.96398920  0.77877344  0.57471007     0.13700
C1572       C  0.94568470  0.79262512  0.53974761    -0.20700
C1573       C  0.93228080  0.76583397  0.51073838    -0.07200
C1574       C  0.92837788  0.72521131  0.52144507     0.13700
C1575       C  0.90717281  0.69599120  0.49497412    -0.24000
H1576       H  0.94728284  0.67928775  0.56199080     0.15000
H1577       H  0.94717988  0.82408594  0.53254164     0.15000
C1578       C  0.97913913  0.80887979  0.60451366    -0.24000
H1579       H  0.89366812  0.71107608  0.46898061     0.05200
H1580       H  0.88293668  0.68112496  0.51205413     0.08400
H1581       H  0.92828634  0.67304709  0.48440364     0.08400
H1582       H  0.01198271  0.80790432  0.60610799     0.08400
H1583       H  0.96622611  0.80248913  0.63436777     0.08400
H1584       H  0.97082579  0.83973385  0.59617665     0.05200
C1585       C  0.17832629  0.76829911  0.76000489    -0.20600
C1586       C  0.17376111  0.75466952  0.72035155    -0.07200
C1587       C  0.20378969  0.76409646  0.69241210     0.13700
C1588       C  0.23896296  0.78265091  0.70577290    -0.20700
C1589       C  0.24556223  0.79152096  0.74628992    -0.07200
C1590       C  0.21364968  0.78677426  0.77317647     0.13700
C1591       C  0.21750592  0.79926573  0.81616311    -0.24000
H1592       H  0.15445253  0.76343654  0.78128430     0.15000
H1593       H  0.26293123  0.78696766  0.68494130     0.15000
C1594       C  0.20024653  0.75246241  0.64918150    -0.24000
H1595       H  0.18984836  0.79299055  0.83330845     0.05200
H1596       H  0.22357765  0.83178372  0.81770971     0.08400
H1597       H  0.24223059  0.78318596  0.83069449     0.08400
H1598       H  0.17493509  0.76828271  0.63537925     0.08400
H1599       H  0.19558724  0.71977656  0.64664573     0.08400
H1600       H  0.22743250  0.76038137  0.63200386     0.05200
C1601       C  0.32411022  0.44372735  0.57286527    -0.20600
C1602       C  0.31596647  0.48491305  0.57332153    -0.07200
C1603       C  0.33772600  0.51008458  0.54731755     0.13700
C1604       C  0.36172462  0.49259921  0.51764148    -0.20700
C1605       C  0.36207094  0.45095646  0.51216895    -0.07200
C1606       C  0.34729158  0.42664818  0.54284799     0.13700
C1607       C  0.35206127  0.38213638  0.54109503    -0.24000
H1608       H  0.31058973  0.42426830  0.59492549     0.15000
H1609       H  0.37431919  0.51140123  0.49454003     0.15000
C1610       C  0.33360441  0.55469206  0.54852515    -0.24000
H1611       H  0.33910978  0.36723807  0.56774770     0.05200
H1612       H  0.38422621  0.37526158  0.53972912     0.08400
H1613       H  0.33714857  0.36972312  0.51430631     0.08400
H1614       H  0.34409925  0.56623990  0.57769451     0.08400
H1615       H  0.30202870  0.56293685  0.54403646     0.08400
H1616       H  0.35160014  0.56939874  0.52483133     0.05200
C1617       C  0.31127349  0.62905131  0.77626537    -0.20600
C1618       C  0.27101480  0.62868430  0.76445518    -0.07200
C1619       C  0.24572371  0.65861386  0.77925583     0.13700
C1620       C  0.26276181  0.69140632  0.79920600    -0.20700
C1621       C  0.30431823  0.69546560  0.80301028    -0.07200
C1622       C  0.32809767  0.66204245  0.79581669     0.13700
C1623       C  0.37199395  0.66308527  0.80468037    -0.24000
H1624       H  0.33032677  0.60444691  0.76800573     0.15000
H1625       H  0.24420337  0.71656465  0.80636993     0.15000
C1626       C  0.20166807  0.65782279  0.77158336    -0.24000
H1627       H  0.38650785  0.63451911  0.79674646     0.05200
H1628       H  0.37653107  0.66850679  0.83700993     0.08400
H1629       H  0.38688271  0.68724873  0.78753590     0.08400
H1630       H  0.18814388  0.63094053  0.78547438     0.08400
H1631       H  0.19602704  0.65751731  0.73899119     0.08400
H1632       H  0.18674127  0.68425544  0.78456431     0.05200
C1633       C  0.32919100  0.57890210  0.43038664    -0.20600
C1634       C  0.29019416  0.58862098  0.44280070    -0.07200
C1635       C  0.25984578  0.55988217  0.43806204     0.13700
C1636       C  0.26955974  0.52209733  0.42245141    -0.20700
C1637       C  0.30905616  0.51186472  0.41230502    -0.07200
C1638       C  0.33889237  0.54122657  0.41527064     0.13700
C1639       C  0.38146522  0.53226772  0.40449815    -0.24000
H1640       H  0.35269763  0.60101064  0.43309738     0.15000
H1641       H  0.24671007  0.49922124  0.42117531     0.15000
C1642       C  0.21753076  0.56874875  0.44950664    -0.24000
H1643       H  0.40112570  0.55866110  0.40863317     0.05200
H1644       H  0.38320178  0.52308029  0.37277204     0.08400
H1645       H  0.39296015  0.50787460  0.42343712     0.08400
H1646       H  0.20666882  0.59457555  0.43211196     0.08400
H1647       H  0.21584244  0.57573561  0.48182268     0.08400
H1648       H  0.19751294  0.54295150  0.44357815     0.05200
C1649       C  0.32956950  0.71326611  0.63447240    -0.20600
C1650       C  0.31358878  0.74477746  0.61259830    -0.07200
C1651       C  0.31879046  0.78431254  0.62739232     0.13700
C1652       C  0.33742651  0.79083603  0.66437844    -0.20700
C1653       C  0.35018278  0.75904286  0.68788908    -0.07200
C1654       C  0.34795060  0.72000299  0.67167391     0.13700
C1655       C  0.36477945  0.68527237  0.69398432    -0.24000
H1656       H  0.32823125  0.68341212  0.62217696     0.15000
H1657       H  0.33813589  0.82063495  0.67690111     0.15000
C1658       C  0.30244425  0.81991055  0.60552359    -0.24000
H1659       H  0.36214258  0.65707662  0.67679617     0.05200
H1660       H  0.34849138  0.68132090  0.72223941     0.08400
H1661       H  0.39670532  0.69082985  0.70035139     0.08400
H1662       H  0.27040314  0.81518492  0.59907321     0.08400
H1663       H  0.31896536  0.82478555  0.57730560     0.08400
H1664       H  0.30530867  0.84772733  0.62329474     0.05200
C1665       C  0.10981338  0.76529632  0.49372444    -0.20600
C1666       C  0.13235500  0.75278254  0.46083664    -0.07200
C1667       C  0.11608499  0.75794462  0.42200936     0.13700
C1668       C  0.07856637  0.77565409  0.41728726    -0.20700
C1669       C  0.05551986  0.78714060  0.45016382    -0.07200
C1670       C  0.07189228  0.78241564  0.48884040     0.13700
C1671       C  0.05033954  0.79598282  0.52560039    -0.24000
H1672       H  0.12244297  0.76319650  0.52333113     0.15000
H1673       H  0.06572362  0.77756605  0.38775940     0.15000
C1674       C  0.13716716  0.74285905  0.38516151    -0.24000
H1675       H  0.06934703  0.81723779  0.54247990     0.05200
H1676       H  0.04364724  0.76982990  0.54472266     0.08400
H1677       H  0.02239267  0.81153521  0.51833756     0.08400
H1678       H  0.14487783  0.71099541  0.38909105     0.08400
H1679       H  0.16449389  0.76051183  0.37911424     0.08400
H1680       H  0.11821119  0.74515696  0.35822667     0.05200
C1681       C  0.56456617  0.77292973  0.52375633    -0.20600
C1682       C  0.57572915  0.74672928  0.49320059    -0.07200
C1683       C  0.56949856  0.75874663  0.45332919     0.13700
C1684       C  0.54671779  0.79231002  0.44491394    -0.20700
C1685       C  0.53257371  0.81689387  0.47533509    -0.07200
C1686       C  0.54421421  0.80853298  0.51531275     0.13700
C1687       C  0.53696347  0.83742175  0.54908230    -0.24000
H1688       H  0.57027162  0.76475301  0.55444328     0.15000
H1689       H  0.54107866  0.79995759  0.41404422     0.15000
C1690       C  0.58770389  0.73762765  0.41876023    -0.24000
H1691       H  0.54980211  0.82671098  0.57755269     0.05200
H1692       H  0.50469022  0.84158767  0.55404106     0.08400
H1693       H  0.55108072  0.86661206  0.54206239     0.08400
H1694       H  0.56370226  0.72485645  0.40015553     0.08400
H1695       H  0.60808982  0.71437210  0.42896457     0.08400
H1696       H  0.60547741  0.75894797  0.40057075     0.05200
C1697       C  0.53832120  0.61442377  0.42066189    -0.20600
C1698       C  0.57734291  0.62437853  0.43163023    -0.07200
C1699       C  0.60294930  0.64069884  0.40259970     0.13700
C1700       C  0.58643659  0.65587718  0.36733886    -0.20700
C1701       C  0.54513573  0.65423487  0.36096351    -0.07200
C1702       C  0.52133371  0.63021802  0.38604786     0.13700
C1703       C  0.47768268  0.62382409  0.37814918    -0.24000
H1704       H  0.51957751  0.59962257  0.44224615     0.15000
H1705       H  0.60532482  0.67142306  0.34610271     0.15000
C1706       C  0.64678673  0.64544258  0.41060544    -0.24000
H1707       H  0.46335921  0.60541328  0.40169544     0.05200
H1708       H  0.47364516  0.60813844  0.34927837     0.08400
H1709       H  0.46231175  0.65297018  0.37719026     0.08400
H1710       H  0.65986889  0.61585151  0.41632361     0.08400
H1711       H  0.65206127  0.66424637  0.43729793     0.08400
H1712       H  0.66257142  0.65921498  0.38488279     0.05200
C1713       C  0.48442712  0.70822209  0.53644559    -0.20600
C1714       C  0.49159561  0.66789735  0.52833660    -0.07200
C1715       C  0.46261235  0.64620645  0.50720667     0.13700
C1716       C  0.43161662  0.66652959  0.48825310    -0.20700
C1717       C  0.42727151  0.70825331  0.49163200    -0.07200
C1718       C  0.45244445  0.72864033  0.51896910     0.13700
C1719       C  0.44658492  0.77174942  0.52981170    -0.24000
H1720       H  0.50587466  0.72455504  0.55416965     0.15000
H1721       H  0.41045466  0.64922886  0.47100743     0.15000
C1722       C  0.46337480  0.60144862  0.50517818    -0.24000
H1723       H  0.46905474  0.78203902  0.55165815     0.05200
H1724       H  0.41711895  0.77572500  0.54421751     0.08400
H1725       H  0.44903589  0.79067927  0.50278930     0.08400
H1726       H  0.43685027  0.58932826  0.52094642     0.08400
H1727       H  0.49027283  0.58903278  0.51951678     0.08400
H1728       H  0.46193282  0.59124475  0.47381995     0.05200
C1729       C  0.33798973  0.64545231  0.15047131    -0.20600
C1730       C  0.31114155  0.63278877  0.17978448    -0.07200
C1731       C  0.32460478  0.62997024  0.21930268     0.13700
C1732       C  0.35898396  0.65056471  0.23063665    -0.20700
C1733       C  0.38214644  0.67101549  0.20228922    -0.07200
C1734       C  0.37382633  0.66442735  0.16118102     0.13700
C1735       C  0.40120639  0.67856692  0.12838275    -0.24000
H1736       H  0.32855709  0.64565012  0.11959161     0.15000
H1737       H  0.36720805  0.65103267  0.26185179     0.15000
C1738       C  0.30235520  0.60615716  0.24992239    -0.24000
H1739       H  0.39074274  0.66872366  0.09854969     0.05200
H1740       H  0.43142614  0.66628717  0.13287659     0.08400
H1741       H  0.40248463  0.71156566  0.12807935     0.08400
H1742       H  0.27693410  0.59006171  0.23629001     0.08400
H1743       H  0.29194726  0.62597781  0.27414722     0.08400
H1744       H  0.32242532  0.58349449  0.26286410     0.05200
C1745       C  0.21375701  0.73031207  0.25720834    -0.20600
C1746       C  0.20970499  0.68893723  0.25229276    -0.07200
C1747       C  0.21961119  0.66412414  0.28429364     0.13700
C1748       C  0.24143886  0.68002162  0.31632223    -0.20700
C1749       C  0.25074487  0.72100300  0.31839121    -0.07200
C1750       C  0.23421458  0.74680098  0.28978123     0.13700
C1751       C  0.23961294  0.79134407  0.29231521    -0.24000
H1752       H  0.20358703  0.74959010  0.23383648     0.15000
H1753       H  0.25031806  0.66051526  0.34039387     0.15000
C1754       C  0.20630334  0.62123195  0.28467911    -0.24000
H1755       H  0.22597839  0.80663308  0.26659014     0.05200
H1756       H  0.27177780  0.79898969  0.29281560     0.08400
H1757       H  0.22490819  0.80309188  0.31948696     0.08400
H1758       H  0.21600114  0.60562615  0.25731007     0.08400
H1759       H  0.17333205  0.61996045  0.28586166     0.08400
H1760       H  0.21806115  0.60513512  0.31097763     0.05200
C1761       C  0.21769885  0.77794109  0.16448617    -0.20600
C1762       C  0.25032003  0.75299807  0.15796987    -0.07200
C1763       C  0.28883310  0.76836947  0.16595271     0.13700
C1764       C  0.29369846  0.80563753  0.18454205    -0.20700
C1765       C  0.26097325  0.82943280  0.19348667    -0.07200
C1766       C  0.22248341  0.81584754  0.18206375     0.13700
C1767       C  0.18600283  0.84063613  0.18986565    -0.24000
H1768       H  0.18802895  0.76652974  0.15876856     0.15000
H1769       H  0.32341072  0.81705810  0.19011178     0.15000
C1770       C  0.32553663  0.74679771  0.15351822    -0.24000
H1771       H  0.15826205  0.82445934  0.18175056     0.05200
H1772       H  0.18711881  0.86831634  0.17191006     0.08400
H1773       H  0.18418013  0.84844994  0.22198114     0.08400
H1774       H  0.31819666  0.72001880  0.13572847     0.08400
H1775       H  0.34419873  0.76645193  0.13437306     0.08400
H1776       H  0.34264216  0.73869057  0.18043170     0.05200
C1777       C  0.34581244  0.55398836  0.99094359    -0.20600
C1778       C  0.32794505  0.54898309  0.02862298    -0.07200
C1779       C  0.34896293  0.52829657  0.05816264     0.13700
C1780       C  0.38364881  0.50760816  0.04763138    -0.20700
C1781       C  0.39832642  0.50750140  0.00811605    -0.07200
C1782       C  0.38044254  0.53323704  0.98010593     0.13700
C1783       C  0.39719409  0.53882785  0.93874388    -0.24000
H1784       H  0.32982116  0.57015293  0.96823059     0.15000
H1785       H  0.39847147  0.49014459  0.07022467     0.15000
C1786       C  0.33303611  0.52576090  0.10014756    -0.24000
H1787       H  0.38034421  0.56137528  0.92160712     0.05200
H1788       H  0.39565755  0.51033664  0.92199816     0.08400
H1789       H  0.42854400  0.54919990  0.94056152     0.08400
H1790       H  0.30337919  0.51105794  0.10047349     0.08400
H1791       H  0.33021078  0.55625320  0.11267802     0.08400
H1792       H  0.35304468  0.50848098  0.11979332     0.05200
C1793       C  0.24542678  0.47773326  0.92168415    -0.20600
C1794       C  0.24234373  0.51793322  0.93318676    -0.07200
C1795       C  0.24971743  0.54808716  0.90490986     0.13700
C1796       C  0.25850389  0.53716462  0.86555672    -0.20700
C1797       C  0.26011461  0.49690871  0.85388122    -0.07200
C1798       C  0.25383805  0.46678730  0.88227166     0.13700
C1799       C  0.25450289  0.42338441  0.87082844    -0.24000
H1800       H  0.24119158  0.45468331  0.94364387     0.15000
H1801       H  0.26291983  0.56022919  0.84330182     0.15000
C1802       C  0.24897006  0.59158117  0.91609322    -0.24000
H1803       H  0.24850066  0.40374530  0.89684494     0.05200
H1804       H  0.28417093  0.41573071  0.85854295     0.08400
H1805       H  0.23144879  0.41725008  0.84797604     0.08400
H1806       H  0.27050614  0.59760875  0.94035862     0.08400
H1807       H  0.21873469  0.59987987  0.92627602     0.08400
H1808       H  0.25694682  0.61098368  0.89042167     0.05200
C1809       C  0.29253643  0.43023607  0.04038780    -0.20600
C1810       C  0.25271512  0.44112922  0.03351587    -0.07200
C1811       C  0.22873348  0.41502913  0.01087523     0.13700
C1812       C  0.24596254  0.38151127  0.99235677    -0.20700
C1813       C  0.28679689  0.37254695  0.99617133    -0.07200
C1814       C  0.30985385  0.39651445  0.02224253     0.13700
C1815       C  0.35318713  0.38821749  0.02955523    -0.24000
H1816       H  0.31127121  0.45032333  0.05734280     0.15000
H1817       H  0.22718516  0.36225655  0.97441350     0.15000
C1818       C  0.18547297  0.42398753  0.00395522    -0.24000
H1819       H  0.36721415  0.41158462  0.04843112     0.05200
H1820       H  0.36952322  0.38731384  0.00074686     0.08400
H1821       H  0.35646400  0.35939429  0.04532207     0.08400
H1822       H  0.18228955  0.45299878  0.98849589     0.08400
H1823       H  0.16965822  0.42530829  0.03302675     0.08400
H1824       H  0.17090590  0.40073667  0.98535398     0.05200
C1825       C  0.06724932  0.82475718  0.01720900    -0.20600
C1826       C  0.04234971  0.83439425  0.98458668    -0.07200
C1827       C  0.03298920  0.80416739  0.95707096     0.13700
C1828       C  0.04725090  0.76549173  0.96377300    -0.20700
C1829       C  0.07046505  0.75543345  0.99743954    -0.07200
C1830       C  0.08224071  0.78636155  0.02335470     0.13700
C1831       C  0.11003646  0.77963036  0.05789597    -0.24000
H1832       H  0.07549957  0.84767100  0.03846328     0.15000
H1833       H  0.03832811  0.74249387  0.94317834     0.15000
C1834       C  0.00813353  0.81214961  0.92072305    -0.24000
H1835       H  0.11456047  0.80713313  0.07581374     0.05200
H1836       H  0.13959693  0.77064991  0.04637260     0.08400
H1837       H  0.09831417  0.75636193  0.07828359     0.08400
H1838       H  0.02272284  0.83533519  0.90203188     0.08400
H1839       H  0.97813538  0.82230612  0.92993553     0.08400
H1840       H  0.00427407  0.78501564  0.90208769     0.05200
C1841       C  0.00255950  0.67592169  0.88052365    -0.20600
C1842       C  0.03319014  0.69885139  0.86344189    -0.07200
C1843       C  0.07098148  0.69944741  0.88219217     0.13700
C1844       C  0.07699479  0.67755505  0.91731496    -0.20700
C1845       C  0.04588406  0.65619342  0.93552403    -0.07200
C1846       C  0.00853340  0.65471202  0.91627581     0.13700
C1847       C  0.97513928  0.63020497  0.93348867    -0.24000
H1848       H  0.97439603  0.67335653  0.86509444     0.15000
H1849       H  0.10518615  0.68019858  0.93269484     0.15000
C1850       C  0.10467273  0.72495936  0.86632218    -0.24000
H1851       H  0.94768105  0.63231119  0.91533955     0.05200
H1852       H  0.96836545  0.64064746  0.96394384     0.08400
H1853       H  0.98412768  0.59848435  0.93486884     0.08400
H1854       H  0.09470729  0.75631903  0.86373075     0.08400
H1855       H  0.11473020  0.71416786  0.83673740     0.08400
H1856       H  0.13085633  0.72452903  0.88639141     0.05200
C1857       C  0.30191777  0.02231958  0.46256099    -0.20600
C1858       C  0.29601544  0.03085243  0.50335731    -0.07200
C1859       C  0.32850249  0.02617633  0.52951360     0.13700
C1860       C  0.36305745  0.00747265  0.51541240    -0.20700
C1861       C  0.36686302  0.99470137  0.47557450    -0.07200
C1862       C  0.33680576  0.00442370  0.44828322     0.13700
C1863       C  0.34031227  0.99405028  0.40470560    -0.24000
H1864       H  0.27777828  0.02680889  0.44209597     0.15000
H1865       H  0.38746914  0.00285081  0.53590135     0.15000
C1866       C  0.32831751  0.04022395  0.57219297    -0.24000
H1867       H  0.36578770  0.01036745  0.39117533     0.05200
H1868       H  0.31319533  0.00232094  0.38794793     0.08400
H1869       H  0.34478297  0.96148888  0.40123267     0.08400
H1870       H  0.29959050  0.05281353  0.58173979     0.08400
H1871       H  0.35143246  0.06370534  0.57593349     0.08400
H1872       H  0.33567133  0.01519787  0.59239136     0.05200
C1873       C  0.19441140  0.97148725  0.42439578    -0.20600
C1874       C  0.19319958  0.01135692  0.43792395    -0.07200
C1875       C  0.20728006  0.04149542  0.41173489     0.13700
C1876       C  0.22411904  0.03068530  0.37479396    -0.20700
C1877       C  0.22839143  0.99062086  0.36286917    -0.07200
C1878       C  0.21198080  0.96068162  0.38768959     0.13700
C1879       C  0.21214058  0.91716135  0.37670635    -0.24000
H1880       H  0.18417344  0.94802346  0.44419402     0.15000
H1881       H  0.23524577  0.05410069  0.35536537     0.15000
C1882       C  0.20845001  0.08513805  0.42248456    -0.24000
H1883       H  0.18119098  0.90542734  0.37696701     0.05200
H1884       H  0.22984895  0.90046807  0.39890453     0.08400
H1885       H  0.22476159  0.91130934  0.34679201     0.08400
H1886       H  0.19538741  0.09193202  0.45184757     0.08400
H1887       H  0.23977707  0.09582604  0.42265178     0.08400
H1888       H  0.19169730  0.10233957  0.39990763     0.05200
C1889       C  0.19195315  0.91266774  0.52602689    -0.20600
C1890       C  0.21542714  0.93740065  0.54977735    -0.07200
C1891       C  0.25463758  0.92602475  0.55808422     0.13700
C1892       C  0.27272676  0.89676232  0.53455548    -0.20700
C1893       C  0.25099289  0.87614931  0.50522438    -0.07200
C1894       C  0.20905323  0.88203327  0.50353573     0.13700
C1895       C  0.18156721  0.85634208  0.47891303    -0.24000
H1896       H  0.16121743  0.92073638  0.52092132     0.15000
H1897       H  0.30387753  0.89020837  0.53906956     0.15000
C1898       C  0.27760261  0.94676885  0.59039641    -0.24000
H1899       H  0.14987714  0.86450979  0.48316302     0.05200
H1900       H  0.18461320  0.82489977  0.48831982     0.08400
H1901       H  0.18837821  0.85959478  0.44672181     0.08400
H1902       H  0.26332022  0.94048845  0.61962422     0.08400
H1903       H  0.27722334  0.97926801  0.58545189     0.08400
H1904       H  0.30895092  0.93666475  0.59155631     0.05200
C1905       C  0.73635050  0.39905758  0.95036580    -0.20600
C1906       C  0.75006336  0.41230731  0.91326565    -0.07200
C1907       C  0.72810276  0.44155837  0.89302291     0.13700
C1908       C  0.69495001  0.45886665  0.91172070    -0.20700
C1909       C  0.68408957  0.44886977  0.95115159    -0.07200
C1910       C  0.70590690  0.41875659  0.97086307     0.13700
C1911       C  0.69988464  0.40929821  0.01446099    -0.24000
H1912       H  0.75364768  0.37705823  0.96574642     0.15000
H1913       H  0.67788499  0.48067657  0.89539313     0.15000
C1914       C  0.74030699  0.45625230  0.85239736    -0.24000
H1915       H  0.72318425  0.38943177  0.02611426     0.05200
H1916       H  0.67131263  0.39369686  0.01925996     0.08400
H1917       H  0.70095419  0.43718036  0.03229357     0.08400
H1918       H  0.71543143  0.45166920  0.83117999     0.08400
H1919       H  0.76655214  0.44015564  0.84059833     0.08400
H1920       H  0.74757946  0.48853209  0.85395593     0.05200
C1921       C  0.85974235  0.45201647  0.02331865    -0.20600
C1922       C  0.84184928  0.41820692  0.00697266    -0.07200
C1923       C  0.81586383  0.39510230  0.03047652     0.13700
C1924       C  0.80073005  0.41157675  0.06572238    -0.20700
C1925       C  0.81360571  0.44925642  0.07910640    -0.07200
C1926       C  0.84606229  0.46813150  0.05924583     0.13700
C1927       C  0.86600404  0.50555325  0.07463545    -0.24000
H1928       H  0.88245778  0.46758541  0.00623872     0.15000
H1929       H  0.77958391  0.39444656  0.08329909     0.15000
C1930       C  0.80682230  0.35217362  0.02073726    -0.24000
H1931       H  0.88808829  0.51767078  0.05303338     0.05200
H1932       H  0.88222716  0.49895647  0.10258551     0.08400
H1933       H  0.84367581  0.52903563  0.08036860     0.08400
H1934       H  0.82028546  0.33297295  0.04391388     0.08400
H1935       H  0.81923970  0.34317455  0.99142737     0.08400
H1936       H  0.77443878  0.34625148  0.02095368     0.05200
C1937       C  0.95265870  0.48351662  0.67124705    -0.20600
C1938       C  0.94370778  0.44378117  0.68207968    -0.07200
C1939       C  0.94479489  0.41413566  0.65227387     0.13700
C1940       C  0.95928752  0.42397822  0.61429378    -0.20700
C1941       C  0.97328510  0.46261223  0.60493453    -0.07200
C1942       C  0.96802706  0.49322090  0.63327273     0.13700
C1943       C  0.97865047  0.53581881  0.62385027    -0.24000
H1944       H  0.95168504  0.50639881  0.69405162     0.15000
H1945       H  0.96160729  0.40050522  0.59219825     0.15000
C1946       C  0.93392070  0.37133625  0.66096991    -0.24000
H1947       H  0.97157856  0.55601854  0.64912652     0.05200
H1948       H  0.96160339  0.54587105  0.59746083     0.08400
H1949       H  0.01097297  0.53844671  0.61757022     0.08400
H1950       H  0.90268947  0.36951180  0.67163246     0.08400
H1951       H  0.95408903  0.35892362  0.68383264     0.08400
H1952       H  0.93638900  0.35227227  0.63399846     0.05200
C1953       C  0.04942400  0.54397617  0.76665719    -0.20600
C1954       C  0.01920773  0.56858079  0.75212043    -0.07200
C1955       C  0.97916840  0.55946219  0.76299307     0.13700
C1956       C  0.97027665  0.52397669  0.78312429    -0.20700
C1957       C  0.99992238  0.49658162  0.79160401    -0.07200
C1958       C  0.04007961  0.50835525  0.78681088     0.13700
C1959       C  0.07284183  0.48257718  0.80231725    -0.24000
H1960       H  0.08026342  0.55211668  0.76155661     0.15000
H1961       H  0.93945078  0.51506461  0.78719379     0.15000
C1962       C  0.94504042  0.58601416  0.75250002    -0.24000
H1963       H  0.10270460  0.49480357  0.79474949     0.05200
H1964       H  0.07023524  0.45245298  0.78960792     0.08400
H1965       H  0.07031051  0.48028006  0.83522920     0.08400
H1966       H  0.94187550  0.58620068  0.71966555     0.08400
H1967       H  0.95043005  0.61653544  0.76416343     0.08400
H1968       H  0.91640157  0.57520757  0.76526083     0.05200
C1969       C  0.05526542  0.41820676  0.68183415    -0.20600
C1970       C  0.05275458  0.39891681  0.71910908    -0.07200
C1971       C  0.08791370  0.39463399  0.74127680     0.13700
C1972       C  0.12103941  0.41841843  0.73125422    -0.20700
C1973       C  0.11979040  0.44545566  0.69911688    -0.07200
C1974       C  0.08799140  0.44266951  0.67206612     0.13700
C1975       C  0.08683544  0.46773435  0.63493791    -0.24000
H1976       H  0.02896792  0.41952326  0.66345705     0.15000
H1977       H  0.14712360  0.41772283  0.75012598     0.15000
C1978       C  0.08933252  0.36839472  0.77764498    -0.24000
H1979       H  0.05904026  0.46264378  0.61798625     0.05200
H1980       H  0.11212980  0.45999756  0.61512666     0.08400
H1981       H  0.08854299  0.49980352  0.64296592     0.08400
H1982       H  0.08174580  0.33729104  0.76913104     0.08400
H1983       H  0.06798940  0.37889271  0.80059363     0.08400
H1984       H  0.11941327  0.36835275  0.79120155     0.05200
C1985       C  0.81472381  0.57596938  0.89206556    -0.20600
C1986       C  0.80441319  0.58888007  0.93107729    -0.07200
C1987       C  0.81119640  0.56265087  0.96292723     0.13700
C1988       C  0.82898288  0.52581424  0.95537684    -0.20700
C1989       C  0.83712647  0.51138534  0.91665673    -0.07200
C1990       C  0.83013015  0.53740904  0.88443612     0.13700
C1991       C  0.83813681  0.52461860  0.84218945    -0.24000
H1992       H  0.81043940  0.59611890  0.86725500     0.15000
H1993       H  0.83396507  0.50691726  0.98044420     0.15000
C1994       C  0.79950962  0.57269446  0.00519765    -0.24000
H1995       H  0.82986489  0.54810782  0.82051674     0.05200
H1996       H  0.82071550  0.49734366  0.83510100     0.08400
H1997       H  0.87028618  0.51846983  0.83831265     0.08400
H1998       H  0.76702870  0.57808183  0.00682076     0.08400
H1999       H  0.81589750  0.59942312  0.01565546     0.08400
H2000       H  0.80592366  0.54798288  0.02599824     0.05200
C2001       C  0.62857369  0.72180095  0.90486061    -0.20600
C2002       C  0.64342252  0.75040891  0.93151390    -0.07200
C2003       C  0.62117188  0.78570642  0.93778583     0.13700
C2004       C  0.58387967  0.79011860  0.91964419    -0.20700
C2005       C  0.56817015  0.76050291  0.89479921    -0.07200
C2006       C  0.59167688  0.72682528  0.88599549     0.13700
C2007       C  0.57817994  0.69566312  0.85681031    -0.24000
H2008       H  0.64632571  0.69586430  0.89783298     0.15000
H2009       H  0.56554596  0.81546709  0.92730419     0.15000
C2010       C  0.63558471  0.81818863  0.96503203    -0.24000
H2011       H  0.57424375  0.66672569  0.87237836     0.05200
H2012       H  0.54990553  0.70405030  0.84228673     0.08400
H2013       H  0.60084916  0.69233833  0.83292445     0.08400
H2014       H  0.66268119  0.83216175  0.95217743     0.08400
H2015       H  0.64167216  0.80543377  0.99487968     0.08400
H2016       H  0.61323944  0.84212119  0.96882055     0.05200
C2017       C  0.94701296  0.73862846  0.03129480    -0.20600
C2018       C  0.92312938  0.71142681  0.01017564    -0.07200
C2019       C  0.92347405  0.67065136  0.02203319     0.13700
C2020       C  0.95387138  0.65740828  0.04712667    -0.20700
C2021       C  0.98339402  0.68387645  0.05971634    -0.07200
C2022       C  0.97505131  0.72484225  0.05864580     0.13700
C2023       C  0.99885196  0.75358052  0.08336620    -0.24000
H2024       H  0.94391622  0.77037328  0.02648772     0.15000
H2025       H  0.95836284  0.62569258  0.05103160     0.15000
C2026       C  0.89272352  0.64070575  0.00842013    -0.24000
H2027       H  0.99072104  0.78497833  0.07715732     0.05200
H2028       H  0.03083570  0.74984283  0.07727300     0.08400
H2029       H  0.99332861  0.74744214  0.11542716     0.08400
H2030       H  0.89513625  0.63536175  0.97588248     0.08400
H2031       H  0.86264478  0.65186787  0.01585943     0.08400
H2032       H  0.89634370  0.61146171  0.02341020     0.05200
C2033       C  0.76887058  0.74178108  0.13190798    -0.20600
C2034       C  0.80157497  0.73768630  0.10641340    -0.07200
C2035       C  0.83943793  0.75144877  0.12072934     0.13700
C2036       C  0.84334017  0.76599485  0.15997601    -0.20700
C2037       C  0.81139433  0.76599546  0.18657004    -0.07200
C2038       C  0.77323102  0.75584011  0.17131855     0.13700
C2039       C  0.73639813  0.76145734  0.19554570    -0.24000
H2040       H  0.73959403  0.73363970  0.12109779     0.15000
H2041       H  0.87244556  0.77457316  0.17096396     0.15000
C2042       C  0.87680382  0.75032584  0.09590140    -0.24000
H2043       H  0.70897404  0.75734568  0.17761159     0.05200
H2044       H  0.73544397  0.73898909  0.21933963     0.08400
H2045       H  0.73614539  0.79216511  0.20778760     0.08400
H2046       H  0.87324931  0.76910981  0.06896823     0.08400
H2047       H  0.88346331  0.71904525  0.08766531     0.08400
H2048       H  0.90311548  0.76201860  0.11220013     0.05200
C2049       C  0.57445330  0.28095940  0.05148660    -0.20600
C2050       C  0.54132874  0.25614655  0.05645816    -0.07200
C2051       C  0.50346952  0.27217125  0.04688521     0.13700
C2052       C  0.50065060  0.30795078  0.02505985    -0.20700
C2053       C  0.53461980  0.33021167  0.01491613    -0.07200
C2054       C  0.57173708  0.31778937  0.03166269     0.13700
C2055       C  0.60957022  0.34189667  0.02811508    -0.24000
H2056       H  0.60345960  0.27004092  0.05987726     0.15000
H2057       H  0.47164170  0.31837569  0.01597687     0.15000
C2058       C  0.46539618  0.25253306  0.05997125    -0.24000
H2059       H  0.63450199  0.32832460  0.04481326     0.05200
H2060       H  0.60495342  0.37204584  0.04078785     0.08400
H2061       H  0.61914045  0.34382784  0.99647871     0.08400
H2062       H  0.47117635  0.22653474  0.07912689     0.08400
H2063       H  0.44792881  0.24315029  0.03354849     0.08400
H2064       H  0.44753605  0.27388480  0.07776773     0.05200
C2065       C  0.41659530  0.16260326  0.05093915    -0.20600
C2066       C  0.41009375  0.15671090  0.00998292    -0.07200
C2067       C  0.43309438  0.12807404  0.98955165     0.13700
C2068       C  0.46775845  0.11397354  0.00779678    -0.20700
C2069       C  0.47902114  0.12825528  0.04537034    -0.07200
C2070       C  0.45029707  0.14678811  0.06928909     0.13700
C2071       C  0.45743560  0.15271890  0.11319755    -0.24000
H2072       H  0.39645613  0.18108219  0.06805909     0.15000
H2073       H  0.48869376  0.09644039  0.99071565     0.15000
C2074       C  0.42280240  0.11438687  0.94813880    -0.24000
H2075       H  0.43253055  0.16894643  0.12757688     0.05200
H2076       H  0.48532491  0.16981881  0.11827090     0.08400
H2077       H  0.46014599  0.12319403  0.12780846     0.08400
H2078       H  0.42206187  0.14029509  0.92769389     0.08400
H2079       H  0.39323900  0.09945866  0.94844109     0.08400
H2080       H  0.44468554  0.09257948  0.93661503     0.05200
C2081       C  0.47575264  0.49345618  0.70771209    -0.20600
C2082       C  0.48871200  0.51297164  0.67240148    -0.07200
C2083       C  0.45952636  0.52179102  0.64350522     0.13700
C2084       C  0.41931275  0.51223799  0.65156652    -0.20700
C2085       C  0.40722880  0.49351447  0.68740976    -0.07200
C2086       C  0.43607794  0.48351862  0.71547383     0.13700
C2087       C  0.42523292  0.46352961  0.75434108    -0.24000
H2088       H  0.49650871  0.48508153  0.73017316     0.15000
H2089       H  0.39687800  0.51990753  0.62980015     0.15000
C2090       C  0.47006189  0.53996970  0.60380187    -0.24000
H2091       H  0.45176556  0.45781034  0.77300099     0.05200
H2092       H  0.41081529  0.43429922  0.74836639     0.08400
H2093       H  0.40464829  0.48270203  0.77165435     0.08400
H2094       H  0.49355336  0.52224930  0.58888049     0.08400
H2095       H  0.48027425  0.57114319  0.60791216     0.08400
H2096       H  0.44397147  0.54075555  0.58361121     0.05200
C2097       C  0.54331856  0.52055151  0.77489215    -0.20600
C2098       C  0.57778491  0.50382531  0.75831224    -0.07200
C2099       C  0.59778729  0.47423807  0.78011534     0.13700
C2100       C  0.58117052  0.45967218  0.81597442    -0.20700
C2101       C  0.54512940  0.47446604  0.83121427    -0.07200
C2102       C  0.52643257  0.50580385  0.81051534     0.13700
C2103       C  0.48880072  0.52408935  0.82647610    -0.24000
H2104       H  0.52812459  0.54371546  0.75853610     0.15000
H2105       H  0.59765366  0.43834549  0.83352952     0.15000
C2106       C  0.63792207  0.45999929  0.76687224    -0.24000
H2107       H  0.47733585  0.54752692  0.80630641     0.05200
H2108       H  0.49433937  0.53765132  0.85607863     0.08400
H2109       H  0.46550022  0.50075378  0.82978209     0.08400
H2110       H  0.65910695  0.48551529  0.76620234     0.08400
H2111       H  0.64986496  0.43688471  0.78714574     0.08400
H2112       H  0.63585661  0.44724503  0.73675121     0.05200
C2113       C  0.46138523  0.24965617  0.58605912    -0.20600
C2114       C  0.50174518  0.24445307  0.59676970    -0.07200
C2115       C  0.53109568  0.26421393  0.57374047     0.13700
C2116       C  0.51970432  0.28418287  0.53882193    -0.20700
C2117       C  0.47996054  0.28467140  0.52555744    -0.07200
C2118       C  0.45022190  0.27025801  0.55143806     0.13700
C2119       C  0.40679253  0.27635156  0.54274841    -0.24000
H2120       H  0.43802463  0.23730262  0.60474093     0.15000
H2121       H  0.54269139  0.29610615  0.51965850     0.15000
C2122       C  0.57441770  0.26419510  0.58507096    -0.24000
H2123       H  0.38740011  0.26235048  0.56575000     0.05200
H2124       H  0.39853762  0.26385839  0.51342294     0.08400
H2125       H  0.40061466  0.30866022  0.54245016     0.08400
H2126       H  0.58570811  0.23320972  0.58541020     0.08400
H2127       H  0.57823137  0.27804533  0.61491427     0.08400
H2128       H  0.59293845  0.28145419  0.56360103     0.05200
C2129       C  0.67473306  0.27276810  0.79235515    -0.20600
C2130       C  0.66149796  0.26360426  0.75361060    -0.07200
C2131       C  0.68435755  0.27662036  0.72076776     0.13700
C2132       C  0.72117797  0.29540724  0.72752417    -0.20700
C2133       C  0.73700323  0.29925259  0.76616115    -0.07200
C2134       C  0.71238542  0.28991865  0.79905273     0.13700
C2135       C  0.72681446  0.29526359  0.84120339    -0.24000
H2136       H  0.65600977  0.26512405  0.81762960     0.15000
H2137       H  0.73965008  0.30306576  0.70222229     0.15000
C2138       C  0.67007061  0.27079562  0.67861026    -0.24000
H2139       H  0.70360852  0.28681057  0.86332654     0.05200
H2140       H  0.73491951  0.32698028  0.84632347     0.08400
H2141       H  0.75312501  0.27628696  0.84659297     0.08400
H2142       H  0.64047490  0.28453160  0.67452566     0.08400
H2143       H  0.66800304  0.23849541  0.67173397     0.08400
H2144       H  0.69056462  0.28486327  0.65684949     0.05200
C2145       C  0.53360010  0.38205591  0.64843496    -0.20600
C2146       C  0.55149552  0.36528282  0.68223094    -0.07200
C2147       C  0.59067273  0.37768519  0.69215119     0.13700
C2148       C  0.60927196  0.40803485  0.66982327    -0.20700
C2149       C  0.58753306  0.43058818  0.64269576    -0.07200
C2150       C  0.55112348  0.41472303  0.62879142     0.13700
C2151       C  0.52841058  0.43475979  0.59601903    -0.24000
H2152       H  0.50475896  0.37127098  0.63871043     0.15000
H2153       H  0.63863779  0.41846952  0.67801917     0.15000
C2154       C  0.61282758  0.35995221  0.72661388    -0.24000
H2155       H  0.52287202  0.41314847  0.57153860     0.05200
H2156       H  0.49946343  0.44544884  0.60772295     0.08400
H2157       H  0.54516207  0.46052537  0.58351141     0.08400
H2158       H  0.61427174  0.32739248  0.72274360     0.08400
H2159       H  0.59743045  0.36708208  0.75503306     0.08400
H2160       H  0.64376542  0.37154906  0.72865446     0.05200
C2161       C  0.54758233  0.24138310  0.90531999    -0.20600
C2162       C  0.51969879  0.21866156  0.88361045    -0.07200
C2163       C  0.51163972  0.17898199  0.89670886     0.13700
C2164       C  0.52755795  0.16567655  0.93291996    -0.20700
C2165       C  0.55372085  0.18920773  0.95519128    -0.07200
C2166       C  0.56556798  0.22663303  0.94000060     0.13700
C2167       C  0.59802088  0.25120060  0.95863770    -0.24000
H2168       H  0.55655219  0.27054915  0.89456624     0.15000
H2169       H  0.51974085  0.13638331  0.94389920     0.15000
C2170       C  0.48850332  0.14920099  0.87208408    -0.24000
H2171       H  0.58679611  0.28149134  0.96456734     0.05200
H2172       H  0.62327543  0.25381666  0.93737330     0.08400
H2173       H  0.60940990  0.23811189  0.98662076     0.08400
H2174       H  0.50330635  0.14514651  0.84276470     0.08400
H2175       H  0.45748568  0.15935261  0.86792796     0.08400
H2176       H  0.48732737  0.11937988  0.88628228     0.05200
C2177       C  0.47529035  0.02348495  0.78107760    -0.20600
C2178       C  0.50957665  0.00157110  0.78894235    -0.07200
C2179       C  0.54712521  0.01980154  0.78182632     0.13700
C2180       C  0.54935787  0.05914967  0.76690407    -0.20700
C2181       C  0.51488384  0.08084381  0.75828482    -0.07200
C2182       C  0.47728545  0.06210973  0.76507684     0.13700
C2183       C  0.43879750  0.08122778  0.75275263    -0.24000
H2184       H  0.44655849  0.00898294  0.78446115     0.15000
H2185       H  0.57821785  0.07309437  0.76257493     0.15000
C2186       C  0.58539025  0.99834467  0.78965515    -0.24000
H2187       H  0.43208364  0.10731026  0.77186193     0.05200
H2188       H  0.41312730  0.06038907  0.75551739     0.08400
H2189       H  0.44097996  0.09030902  0.72101898     0.08400
H2190       H  0.60189460  0.99485385  0.76122896     0.08400
H2191       H  0.58047296  0.96847254  0.80288435     0.08400
H2192       H  0.60383159  0.01593903  0.81078544     0.05200
C2193       C  0.28830230  0.16435636  0.76030097    -0.20600
C2194       C  0.24720662  0.15849095  0.75560739    -0.07200
C2195       C  0.22210508  0.16338887  0.78882953     0.13700
C2196       C  0.23738170  0.18168209  0.82325248    -0.20700
C2197       C  0.27759516  0.19346704  0.82553026    -0.07200
C2198       C  0.30391000  0.18170372  0.79504115     0.13700
C2199       C  0.34785953  0.18951389  0.79788962    -0.24000
H2200       H  0.30769654  0.15915971  0.73513012     0.15000
H2201       H  0.21760689  0.18775084  0.84809612     0.15000
C2202       C  0.17880239  0.15172709  0.78689949    -0.24000
H2203       H  0.36347107  0.17843165  0.77110645     0.05200
H2204       H  0.36038688  0.17354816  0.82385292     0.08400
H2205       H  0.35367615  0.22198966  0.80084643     0.08400
H2206       H  0.17628285  0.11934612  0.78054666     0.08400
H2207       H  0.16347478  0.16839854  0.76297833     0.08400
H2208       H  0.16324443  0.15779173  0.81549432     0.05200
C2209       C  0.21973890  0.32464493  0.73192270    -0.20600
C2210       C  0.21983904  0.34755741  0.69709540    -0.07200
C2211       C  0.20180541  0.33141852  0.66205101     0.13700
C2212       C  0.18835449  0.29171108  0.66210092    -0.20700
C2213       C  0.19267870  0.26762655  0.69573283    -0.07200
C2214       C  0.20546995  0.28536074  0.73183941     0.13700
C2215       C  0.20518710  0.26312265  0.77060882    -0.24000
H2216       H  0.23107567  0.33730509  0.75941764     0.15000
H2217       H  0.17848597  0.27821666  0.63443314     0.15000
C2218       C  0.19931311  0.35418908  0.62330777    -0.24000
H2219       H  0.18819894  0.28018501  0.79326777     0.05200
H2220       H  0.23611017  0.25915110  0.78125449     0.08400
H2221       H  0.19045347  0.23381203  0.76743841     0.08400
H2222       H  0.22941409  0.36442562  0.61399306     0.08400
H2223       H  0.17918116  0.38003289  0.62676021     0.08400
H2224       H  0.18711871  0.33557134  0.59875895     0.05200
C2225       C  0.32627988  0.17678045  0.65744587    -0.20600
C2226       C  0.29968951  0.20783882  0.65078314    -0.07200
C2227       C  0.31278568  0.24731163  0.65759577     0.13700
C2228       C  0.34820534  0.25434672  0.67843780    -0.20700
C2229       C  0.37186402  0.22266212  0.69129534    -0.07200
C2230       C  0.36234756  0.18361002  0.67747986     0.13700
C2231       C  0.38922055  0.14861131  0.68428553    -0.24000
H2232       H  0.31670733  0.14643999  0.65147376     0.15000
H2233       H  0.35661199  0.28473797  0.68568975     0.15000
C2234       C  0.28867465  0.28242479  0.64491519    -0.24000
H2235       H  0.37819302  0.12132991  0.66900737     0.05200
H2236       H  0.39061009  0.14182574  0.71652384     0.08400
H2237       H  0.41943666  0.15529645  0.67251876     0.08400
H2238       H  0.28008020  0.29975204  0.67164627     0.08400
H2239       H  0.26168288  0.27311708  0.62834796     0.08400
H2240       H  0.30677757  0.30177841  0.62495937     0.05200
C2241       C  0.00336993  0.01724417  0.76604378    -0.20600
C2242       C  0.04165028  0.03004857  0.75437931    -0.07200
C2243       C  0.07319967  0.02659832  0.78170911     0.13700
C2244       C  0.06622727  0.00777942  0.81833841    -0.20700
C2245       C  0.02872386  0.99161030  0.82857739    -0.07200
C2246       C  0.99645760  0.99779117  0.80252543     0.13700
C2247       C  0.95526556  0.98232695  0.81169811    -0.24000
H2248       H  0.97920869  0.01972477  0.74507479     0.15000
H2249       H  0.09089804  0.00480292  0.83877703     0.15000
C2250       C  0.11496165  0.03991302  0.77161037    -0.24000
H2251       H  0.93429313  0.98814428  0.78689615     0.05200
H2252       H  0.94338309  0.99730114  0.83869258     0.08400
H2253       H  0.95615156  0.94962624  0.81656087     0.08400
H2254       H  0.11563292  0.07256480  0.76665714     0.08400
H2255       H  0.12568813  0.02421115  0.74452331     0.08400
H2256       H  0.13609470  0.03341700  0.79608035     0.05200
C2257       C  0.95312904  0.04871941  0.67080490    -0.20600
C2258       C  0.97205073  0.01833025  0.64966164    -0.07200
C2259       C  0.95290579  0.98063266  0.64721611     0.13700
C2260       C  0.91777935  0.97312576  0.66921692    -0.20700
C2261       C  0.90093012  0.00246554  0.69379989    -0.07200
C2262       C  0.91837945  0.04144961  0.69321787     0.13700
C2263       C  0.90256988  0.07541226  0.71809944    -0.24000
H2264       H  0.96816388  0.07728686  0.67349340     0.15000
H2265       H  0.90373563  0.94401607  0.66754357     0.15000
C2266       C  0.97063120  0.94771721  0.62253067    -0.24000
H2267       H  0.92241430  0.10199378  0.71706867     0.05200
H2268       H  0.90000342  0.06611922  0.74977378     0.08400
H2269       H  0.87328122  0.08499018  0.70661514     0.08400
H2270       H  0.00001024  0.93939108  0.63452183     0.08400
H2271       H  0.97416147  0.95785813  0.59121573     0.08400
H2272       H  0.95151850  0.92058792  0.62260677     0.05200
C2273       C  0.06554408  0.87342803  0.65939464    -0.20600
C2274       C  0.05765572  0.86312303  0.69959376    -0.07200
C2275       C  0.06615866  0.89141993  0.72956552     0.13700
C2276       C  0.07872998  0.92988949  0.71826080    -0.20700
C2277       C  0.08241854  0.94100052  0.67783819    -0.07200
C2278       C  0.07792702  0.91178301  0.64827220     0.13700
C2279       C  0.08388525  0.92166249  0.60480878    -0.24000
H2280       H  0.06086260  0.85161426  0.63605054     0.15000
H2281       H  0.08247723  0.95247843  0.74102366     0.15000
C2282       C  0.06208416  0.88150781  0.77317241    -0.24000
H2283       H  0.07882128  0.89527333  0.58541500     0.05200
H2284       H  0.11484044  0.93234101  0.59990618     0.08400
H2285       H  0.06294888  0.94528266  0.59552056     0.08400
H2286       H  0.08123788  0.85573841  0.78050574     0.08400
H2287       H  0.03065439  0.87414483  0.78033978     0.08400
H2288       H  0.07121731  0.90693775  0.79239477     0.05200
C2289       C  0.69855103  0.79508781  0.65962534    -0.20600
C2290       C  0.69233800  0.77131963  0.69322268    -0.07200
C2291       C  0.69648914  0.78904506  0.73112840     0.13700
C2292       C  0.71653619  0.82560911  0.73485875    -0.20700
C2293       C  0.73064137  0.84598631  0.70108090    -0.07200
C2294       C  0.71782649  0.83228850  0.66278641     0.13700
C2295       C  0.72708080  0.85409960  0.62447318    -0.24000
H2296       H  0.69401843  0.78200607  0.63039815     0.15000
H2297       H  0.72230962  0.83734851  0.76440826     0.15000
C2298       C  0.68085484  0.76923947  0.76802275    -0.24000
H2299       H  0.71366502  0.83906258  0.59819348     0.05200
H2300       H  0.75965716  0.85505952  0.61938785     0.08400
H2301       H  0.71495964  0.88468848  0.62550169     0.08400
H2302       H  0.70571882  0.76304861  0.78853480     0.08400
H2303       H  0.66471238  0.74134741  0.76076570     0.08400
H2304       H  0.65959381  0.78940192  0.78324605     0.05200
C2305       C  0.83238796  0.67771951  0.65656436    -0.20600
C2306       C  0.80819164  0.71127818  0.65692935    -0.07200
C2307       C  0.82539088  0.74816020  0.66846233     0.13700
C2308       C  0.86331249  0.74943700  0.68588292    -0.20700
C2309       C  0.88569017  0.71474614  0.69069538    -0.07200
C2310       C  0.87065318  0.67872127  0.67323497     0.13700
C2311       C  0.89277199  0.63998898  0.67421589    -0.24000
H2312       H  0.81970188  0.64939790  0.64735738     0.15000
H2313       H  0.87496793  0.77770824  0.69646346     0.15000
C2314       C  0.80400677  0.78663261  0.66303644    -0.24000
H2315       H  0.87717914  0.61594086  0.65752988     0.05200
H2316       H  0.89468749  0.63026052  0.70560259     0.08400
H2317       H  0.92267848  0.64347664  0.66059827     0.08400
H2318       H  0.79731479  0.79978184  0.69263072     0.08400
H2319       H  0.77637004  0.78190435  0.64593076     0.08400
H2320       H  0.82293022  0.80773618  0.64579189     0.05200
C2321       C  0.79640788  0.68072091  0.76361620    -0.20600
C2322       C  0.75549953  0.67247111  0.76062946    -0.07200
C2323       C  0.73103026  0.68106309  0.79352348     0.13700
C2324       C  0.74601884  0.70507316  0.82456885    -0.20700
C2325       C  0.78571525  0.71899690  0.82435965    -0.07200
C2326       C  0.81197557  0.70343976  0.79529356     0.13700
C2327       C  0.85596024  0.71192138  0.79633464    -0.24000
H2328       H  0.81558621  0.67286699  0.73892723     0.15000
H2329       H  0.72643933  0.71329835  0.84892415     0.15000
C2330       C  0.68893807  0.66555804  0.79515357    -0.24000
H2331       H  0.87151122  0.69757279  0.77104151     0.05200
H2332       H  0.86905401  0.69945294  0.82389622     0.08400
H2333       H  0.86152644  0.74453506  0.79495765     0.08400
H2334       H  0.68932791  0.63249208  0.79550800     0.08400
H2335       H  0.67191226  0.67520522  0.76870631     0.08400
H2336       H  0.67322988  0.67595970  0.82236427     0.05200
C2337       C  0.82148188  0.03820056  0.96127690    -0.20600
C2338       C  0.81171597  0.05374190  0.99917925    -0.07200
C2339       C  0.84288437  0.06229273  0.02596299     0.13700
C2340       C  0.88152542  0.04915727  0.01673664    -0.20700
C2341       C  0.88949867  0.02723032  0.98172622    -0.07200
C2342       C  0.85968563  0.02391459  0.95260125     0.13700
C2343       C  0.86796776  0.00525597  0.91258367    -0.24000
H2344       H  0.79802095  0.03319974  0.93981159     0.15000
H2345       H  0.90519777  0.05400300  0.03808463     0.15000
C2346       C  0.83531543  0.08296766  0.06512070    -0.24000
H2347       H  0.84145719  0.00600634  0.89294465     0.05200
H2348       H  0.87658174  0.97365212  0.91644126     0.08400
H2349       H  0.89248203  0.02172650  0.89746086     0.08400
H2350       H  0.81400933  0.06551281  0.08355502     0.08400
H2351       H  0.82303150  0.11303540  0.05949919     0.08400
H2352       H  0.86309020  0.08677296  0.08255682     0.05200
C2353       C  0.71800188  0.03837995  0.91541403    -0.20600
C2354       C  0.71159753  0.00579966  0.94086067    -0.07200
C2355       C  0.71787796  0.96688026  0.92565219     0.13700
C2356       C  0.73241987  0.96159464  0.88658986    -0.20700
C2357       C  0.74015538  0.99425361  0.86171482    -0.07200
C2358       C  0.73205875  0.03314145  0.87614437     0.13700
C2359       C  0.73997004  0.06944881  0.85072499    -0.24000
H2360       H  0.71472281  0.06825558  0.92724014     0.15000
H2361       H  0.73668479  0.93169285  0.87514872     0.15000
C2362       C  0.70958210  0.93027864  0.95020192    -0.24000
H2363       H  0.73436435  0.09750039  0.86735132     0.05200
H2364       H  0.72028728  0.06932240  0.82427599     0.08400
H2365       H  0.77149610  0.06975873  0.84076537     0.08400
H2366       H  0.69577408  0.93764684  0.97929390     0.08400
H2367       H  0.73771706  0.91404582  0.95535078     0.08400
H2368       H  0.68855525  0.91041800  0.93405478     0.05200
C2369       C  0.72730449  0.91653011  0.05227945    -0.20600
C2370       C  0.75581095  0.94700297  0.05474823    -0.07200
C2371       C  0.79632325  0.93752216  0.04901665     0.13700
C2372       C  0.80648162  0.90076460  0.03228799    -0.20700
C2373       C  0.77695137  0.87278007  0.02341405    -0.07200
C2374       C  0.73781472  0.87897788  0.03731830     0.13700
C2375       C  0.70725795  0.84626236  0.03526751    -0.24000
H2376       H  0.69629790  0.92323663  0.05788415     0.15000
H2377       H  0.83721122  0.89463882  0.02473122     0.15000
C2378       C  0.82902729  0.96669469  0.05809943    -0.24000
H2379       H  0.67751050  0.85643376  0.04534167     0.05200
H2380       H  0.71655291  0.82108880  0.05446816     0.08400
H2381       H  0.70514328  0.83557444  0.00421514     0.08400
H2382       H  0.81736199  0.99433931  0.07173422     0.08400
H2383       H  0.84526050  0.97398895  0.03023701     0.08400
H2384       H  0.85008131  0.95322558  0.07954680     0.05200
loop_ 
_geom_bond_atom_site_label_1 
_geom_bond_atom_site_label_2 
_geom_bond_distance 
_geom_bond_site_symmetry_2 
_ccdc_geom_bond_type 
C1            C2   1.565       .  S
C1            C7   1.556       .  S
C1            C5   1.566       .  S
C1          C825   1.601       .  S
C2            H9   1.084       .  S
C2            C3   1.380       .  D
C3            C4   1.522       .  S
C3         C2338   1.493   1_554  S
C4            C8   1.514   1_545  S
C4            C6   1.514   1_554  S
C4           H10   1.112   1_544  S
C5           H11   1.084   1_554  S
C5            C6   1.375   1_554  D
C6         C2354   1.492       .  S
C7           H12   1.085       .  S
C7            C8   1.358   1_545  D
C8         C2370   1.476       .  S
C13          C14   1.563       .  S
C13          C19   1.562       .  S
C13          C17   1.561       .  S
C13         C837   1.603       .  S
C14          H21   1.085       .  S
C14          C15   1.375       .  D
C15          C16   1.520       .  S
C15        C2322   1.483       .  S
C16          C20   1.522       .  S
C16          C18   1.519       .  S
C16          H22   1.112       .  S
C17          H23   1.085       .  S
C17          C18   1.364       .  D
C18        C2290   1.483       .  S
C19          H24   1.085       .  S
C19          C20   1.375       .  D
C20        C2306   1.497       .  S
C25          C26   1.561       .  S
C25          C31   1.554       .  S
C25          C29   1.569       .  S
C25         C169   1.571       .  S
C26          H33   1.084       .  S
C26          C27   1.384       .  D
C27          C28   1.517       .  S
C27        C2258   1.489   1_455  S
C28          C32   1.507   1_545  S
C28          C30   1.512       .  S
C28          H34   1.113   1_545  S
C29          H35   1.079       .  S
C29          C30   1.368       .  D
C30        C2242   1.487       .  S
C31          H36   1.079       .  S
C31          C32   1.368   1_545  D
C32        C2277   1.480       .  S
C37          C38   1.562       .  S
C37          C43   1.557       .  S
C37          C41   1.557       .  S
C37         C167   1.586       .  S
C38          H45   1.085       .  S
C38          C39   1.369       .  D
C39          C40   1.518       .  S
C39        C2226   1.481       .  S
C40          C44   1.518       .  S
C40          C42   1.519       .  S
C40          H46   1.112       .  S
C41          H47   1.085       .  S
C41          C42   1.366       .  D
C42        C2194   1.476       .  S
C43          H48   1.085       .  S
C43          C44   1.370       .  D
C44        C2213   1.485       .  S
Zn49         O53   1.889       .  S
Zn49         O54   2.015       .  S
Zn49         O58   2.052       .  S
Zn49         O65   1.935       .  S
Zn50         O53   1.876       .  S
Zn50         O55   2.030       .  S
Zn50         O57   2.005       .  S
Zn50         O61   1.955       .  S
Zn51         O53   1.887       .  S
Zn51         O56   1.996       .  S
Zn51         O59   1.977       .  S
Zn51         O62   1.934       .  S
Zn52         O53   1.977       .  S
Zn52         O60   2.114       .  S
Zn52         O63   2.140       .  S
Zn52         O64   2.088       .  S
O54          C66   1.279       .  A
O55          C67   1.273       .  A
O56          C68   1.273       .  A
O57          C66   1.276       .  A
O58          C68   1.283       .  A
O59          C67   1.270       .  A
O60          C69   1.280       .  A
O61          C70   1.266       .  A
O62          C69   1.254       .  A
O63          C70   1.290       .  A
O64          C71   1.284       .  A
O65          C71   1.263       .  A
C66        C2162   1.498       .  S
C67        C2229   1.490       .  S
C68        C2146   1.489       .  S
C69        C2114   1.497       .  S
C70        C2181   1.501       .  S
C71        C2130   1.479       .  S
C72          C73   1.569       .  S
C72          C78   1.551       .  S
C72          C76   1.574       .  S
C72         C844   1.576       .  S
C73          H80   1.081       .  S
C73          C74   1.392       .  D
C74          C75   1.524       .  S
C74        C2082   1.516       .  S
C75          C79   1.515       .  S
C75          C77   1.513       .  S
C75          H81   1.109       .  S
C76          H82   1.081       .  S
C76          C77   1.366       .  D
C77        C2098   1.497       .  S
C78          H83   1.085       .  S
C78          C79   1.365       .  D
C79        C2149   1.475       .  S
C84          C85   1.562       .  S
C84          C90   1.567       .  S
C84          C88   1.535       .  S
C84         C830   1.554       .  S
C85          H92   1.085       .  S
C85          C86   1.391       .  D
C86          C87   1.529       .  S
C86        C2050   1.511       .  S
C87          C91   1.516   1_554  S
C87          C89   1.526       .  S
C87          H93   1.109       .  S
C88          H94   1.080       .  S
C88          C89   1.353       .  D
C89        C2069   1.468       .  S
C90          H95   1.082   1_554  S
C90          C91   1.367   1_554  D
C91        C2165   1.483       .  S
Zn96        O100   1.898       .  S
Zn96        O101   2.060       .  S
Zn96        O105   1.965       .  S
Zn96        O112   2.047       .  S
Zn97        O100   1.895       .  S
Zn97        O102   1.944   1_556  S
Zn97        O104   1.968   1_556  S
Zn97        O108   1.957       .  S
Zn98        O100   1.934       .  S
Zn98        O103   2.118       .  S
Zn98        O106   2.156   1_556  S
Zn98        O109   2.131       .  S
Zn99        O100   1.910       .  S
Zn99        O107   1.954       .  S
Zn99        O110   1.996       .  S
Zn99        O111   1.962       .  S
O101        C113   1.284   1_556  A
O102        C114   1.254       .  A
O103        C115   1.288       .  A
O104        C113   1.268       .  A
O105        C115   1.266       .  A
O106        C114   1.288       .  A
O107        C116   1.266       .  A
O108        C117   1.266       .  A
O109        C116   1.293       .  A
O110        C117   1.267       .  A
O111        C118   1.269       .  A
O112        C118   1.279       .  A
C113       C2373   1.468       .  S
C114       C2034   1.511       .  S
C115       C2002   1.488       .  S
C116       C1986   1.499       .  S
C117       C2018   1.478   1_556  S
C118       C2325   1.493       .  S
C119        C120   1.520       .  S
C119        C125   1.529       .  S
C119        C123   1.514       .  S
C119        C732   1.569       .  S
C120        H127   1.084       .  S
C120        C121   1.369       .  D
C121        C122   1.580       .  S
C121        C131   1.544       .  S
C122        C126   1.577       .  S
C122        C124   1.579       .  S
C122        H128   1.109       .  S
C123        H129   1.073       .  S
C123        C124   1.375       .  D
C124        C143   1.571       .  S
C125        H130   1.082       .  S
C125        C126   1.375       .  D
C126        C449   1.560       .  S
C131        C132   1.572       .  S
C131        C137   1.552       .  S
C131        C135   1.550       .  S
C132        H139   1.084   1_655  S
C132        C133   1.368   1_655  D
C133        C134   1.514   1_455  S
C133       C1970   1.491       .  S
C134        C138   1.522       .  S
C134        C136   1.512       .  S
C134        H140   1.112   1_655  S
C135        H141   1.086       .  S
C135        C136   1.363       .  D
C136       C1957   1.473       .  S
C137        H142   1.085       .  S
C137        C138   1.380       .  D
C138       C1938   1.487       .  S
C143        C144   1.577       .  S
C143        C149   1.553       .  S
C143        C147   1.566       .  S
C144        H151   1.084       .  S
C144        C145   1.393       .  D
C145        C146   1.520       .  S
C145       C1989   1.515       .  S
C146        C150   1.511       .  S
C146        C148   1.509       .  S
C146        H152   1.112       .  S
C147        H153   1.076       .  S
C147        C148   1.343       .  D
C148       C1922   1.469   1_556  S
C149        H154   1.079       .  S
C149        C150   1.369       .  D
C150       C1906   1.472       .  S
C155        C156   1.563       .  S
C155        C161   1.576       .  S
C155        C159   1.540       .  S
C155        C172   1.554       .  S
C156        H163   1.085       .  S
C156        C157   1.385       .  D
C157        C158   1.519   1_545  S
C157       C1874   1.499       .  S
C158        C162   1.511   1_565  S
C158        C160   1.515       .  S
C158        H164   1.113       .  S
C159        H165   1.080   1_545  S
C159        C160   1.356   1_545  D
C160       C1890   1.462       .  S
C161        H166   1.084       .  S
C161        C162   1.370       .  D
C162       C1858   1.495       .  S
C167        C168   1.534       .  S
C167        C173   1.534       .  S
C167        C171   1.528       .  S
C168        H175   1.078       .  S
C168        C169   1.378       .  D
C169        C170   1.580       .  S
C170        C174   1.564       .  S
C170        C172   1.573       .  S
C170        H176   1.110       .  S
C171        H177   1.082       .  S
C171        C172   1.369       .  D
C173        H178   1.084       .  S
C173        C174   1.372       .  D
C174        C673   1.542       .  S
C179        C180   1.563   1_554  S
C179        C185   1.553       .  S
C179        C183   1.569       .  S
C179        C215   1.598       .  S
C180        H187   1.084       .  S
C180        C181   1.374       .  D
C181        C182   1.514   1_556  S
C181       C1845   1.491       .  S
C182        C186   1.513       .  S
C182        C184   1.522       .  S
C182        H188   1.109   1_554  S
C183        H189   1.082       .  S
C183        C184   1.387       .  D
C184       C1829   1.502   1_554  S
C185        H190   1.085       .  S
C185        C186   1.348       .  D
C186       C2021   1.466   1_455  S
C191        C192   1.570       .  S
C191        C197   1.565   1_554  S
C191        C195   1.559       .  S
C191        C217   1.574       .  S
C192        H199   1.084       .  S
C192        C193   1.385       .  D
C193        C194   1.513       .  S
C193       C1810   1.496       .  S
C194        C198   1.503   1_554  S
C194        C196   1.511       .  S
C194        H200   1.114   1_554  S
C195        H201   1.084       .  S
C195        C196   1.373       .  D
C196       C1778   1.478       .  S
C197        H202   1.081       .  S
C197        C198   1.363       .  D
C198       C1794   1.478       .  S
C203        C204   1.568       .  S
C203        C209   1.557       .  S
C203        C207   1.548       .  S
C203        C222   1.553       .  S
C204        H211   1.084       .  S
C204        C205   1.375       .  D
C205        C206   1.522       .  S
C205       C1762   1.500       .  S
C206        C210   1.520       .  S
C206        C208   1.524       .  S
C206        H212   1.113       .  S
C207        H213   1.083       .  S
C207        C208   1.361       .  D
C208       C1730   1.476       .  S
C209        H214   1.082       .  S
C209        C210   1.371       .  D
C210       C1746   1.481       .  S
C215        C216   1.538       .  S
C215        C221   1.541       .  S
C215        C219   1.542       .  S
C216        H223   1.078       .  S
C216        C217   1.383       .  D
C217        C218   1.574       .  S
C218        C222   1.570       .  S
C218        C220   1.571       .  S
C218        H224   1.109       .  S
C219        H225   1.078       .  S
C219        C220   1.364       .  D
C220        C638   1.561       .  S
C221        H226   1.084       .  S
C221        C222   1.370       .  D
C227        C228   1.557       .  S
C227        C233   1.575       .  S
C227        C231   1.547       .  S
C227        C842   1.557       .  S
C228        H235   1.085       .  S
C228        C229   1.374       .  D
C229        C230   1.518       .  S
C229       C1714   1.482       .  S
C230        C234   1.518       .  S
C230        C232   1.524       .  S
C230        H236   1.113       .  S
C231        H237   1.082       .  S
C231        C232   1.365       .  D
C232       C1698   1.476       .  S
C233        H238   1.080       .  S
C233        C234   1.369       .  D
C234       C1682   1.498       .  S
Zn239       O243   2.013       .  S
Zn239       O244   2.142       .  S
Zn239       O248   2.152       .  S
Zn239       O255   2.154       .  S
Zn240       O243   1.905       .  S
Zn240       O245   2.019       .  S
Zn240       O247   1.897       .  S
Zn240       O251   2.014       .  S
Zn241       O243   1.914       .  S
Zn241       O246   1.919       .  S
Zn241       O249   1.979       .  S
Zn241       O252   1.982       .  S
Zn242       O243   1.927       .  S
Zn242       O250   1.990       .  S
Zn242       O253   2.007       .  S
Zn242       O254   1.898       .  S
O244        C256   1.288       .  A
O245        C257   1.275       .  A
O246        C258   1.259       .  A
O247        C256   1.258       .  A
O248        C258   1.289       .  A
O249        C257   1.269       .  A
O250        C259   1.271       .  A
O251        C260   1.274       .  A
O252        C259   1.269       .  A
O253        C260   1.272       .  A
O254        C261   1.255       .  A
O255        C261   1.290       .  A
C256       C1634   1.491       .  S
C257       C1749   1.480       .  S
C258       C1666   1.496       .  S
C259       C1893   1.485       .  S
C260       C1717   1.502       .  S
C261       C1650   1.490       .  S
Zn262       O266   1.898       .  S
Zn262       O267   1.964       .  S
Zn262       O271   1.997       .  S
Zn262       O278   1.928       .  S
Zn263       O266   1.901       .  S
Zn263       O268   1.984       .  S
Zn263       O270   2.019       .  S
Zn263       O274   1.928       .  S
Zn264       O266   1.897       .  S
Zn264       O269   2.008       .  S
Zn264       O272   2.032       .  S
Zn264       O275   1.930       .  S
Zn265       O266   1.959       .  S
Zn265       O273   2.061       .  S
Zn265       O276   2.089       .  S
Zn265       O277   2.083       .  S
O267        C279   1.271       .  A
O268        C280   1.274       .  A
O269        C281   1.274       .  A
O270        C279   1.276       .  A
O271        C281   1.275       .  A
O272        C280   1.278       .  A
O273        C282   1.279       .  A
O274        C283   1.262       .  A
O275        C282   1.263       .  A
O276        C283   1.285       .  A
O277        C284   1.283       .  A
O278        C284   1.259       .  A
C279       C1602   1.486       .  S
C280       C1618   1.486       .  S
C281       C1973   1.485       .  S
C282       C1797   1.465       .  S
C283       C2085   1.481       .  S
C284       C2210   1.486       .  S
Zn285       O289   1.908       .  S
Zn285       O290   2.051       .  S
Zn285       O294   1.916       .  S
Zn285       O301   2.023       .  S
Zn286       O289   1.884       .  S
Zn286       O291   1.908       .  S
Zn286       O293   1.987       .  S
Zn286       O297   2.017       .  S
Zn287       O289   1.977   1_655  S
Zn287       O292   2.108   1_655  S
Zn287       O295   2.126   1_655  S
Zn287       O298   2.108       .  S
Zn288       O289   1.908   1_655  S
Zn288       O296   1.957       .  S
Zn288       O299   2.002   1_655  S
Zn288       O300   2.030       .  S
O290        C302   1.281       .  A
O291        C303   1.260       .  A
O292        C304   1.284       .  A
O293        C302   1.272       .  A
O294        C304   1.260       .  A
O295        C303   1.288       .  A
O296        C305   1.260       .  A
O297        C306   1.276       .  A
O298        C305   1.282       .  A
O299        C306   1.275       .  A
O300        C307   1.276       .  A
O301        C307   1.278   1_455  A
C302       C1586   1.495       .  S
C303       C1842   1.480       .  S
C304       C2274   1.490       .  S
C305       C2309   1.505       .  S
C306       C1954   1.490       .  S
C307       C1570   1.488       .  S
C308        C309   1.561       .  S
C308        C314   1.552       .  S
C308        C312   1.576       .  S
C308        C350   1.566       .  S
C309        H316   1.085       .  S
C309        C310   1.382       .  D
C310        C311   1.517       .  S
C310       C1653   1.493       .  S
C311        C315   1.515       .  S
C311        C313   1.513       .  S
C311        H317   1.113       .  S
C312        H318   1.084       .  S
C312        C313   1.376       .  D
C313       C1589   1.494       .  S
C314        H319   1.084       .  S
C314        C315   1.365       .  D
C315       C1621   1.479       .  S
Zn320       O324   1.980       .  S
Zn320       O325   2.122       .  S
Zn320       O329   2.179       .  S
Zn320       O336   2.135       .  S
Zn321       O324   1.903       .  S
Zn321       O326   2.049       .  S
Zn321       O328   1.930       .  S
Zn321       O332   2.046       .  S
Zn322       O324   1.880       .  S
Zn322       O327   1.911       .  S
Zn322       O330   2.015       .  S
Zn322       O333   2.037       .  S
Zn323       O324   1.899       .  S
Zn323       O331   1.950       .  S
Zn323       O334   1.974       .  S
Zn323       O335   1.943       .  S
O325        C337   1.289       .  A
O326        C338   1.281       .  A
O327        C339   1.263       .  A
O328        C337   1.260       .  A
O329        C339   1.294       .  A
O330        C338   1.277       .  A
O331        C340   1.267       .  A
O332        C341   1.282       .  A
O333        C340   1.275       .  A
O334        C341   1.267       .  A
O335        C342   1.258       .  A
O336        C342   1.282       .  A
C337       C1506   1.481       .  S
C338       C1554   1.501       .  S
C339       C1538   1.509       .  S
C340       C1733   1.486       .  S
C341       C1701   1.473       .  S
C342       C1522   1.512       .  S
C343        C344   1.542       .  S
C343        C349   1.535       .  S
C343        C347   1.525       .  S
C343        C685   1.591       .  S
C344        H351   1.080       .  S
C344        C345   1.365       .  D
C345        C346   1.579       .  S
C345        C367   1.576       .  S
C346        C350   1.587       .  S
C346        C348   1.575       .  S
C346        H352   1.109       .  S
C347        H353   1.078       .  S
C347        C348   1.371       .  D
C348        C355   1.557       .  S
C349        H354   1.082       .  S
C349        C350   1.377       .  D
C355        C356   1.547       .  S
C355        C361   1.555       .  S
C355        C359   1.573       .  S
C356        H363   1.079       .  S
C356        C357   1.366       .  D
C357        C358   1.520       .  S
C357       C1490   1.472       .  S
C358        C362   1.515       .  S
C358        C360   1.507       .  S
C358        H364   1.113       .  S
C359        H365   1.081       .  S
C359        C360   1.368       .  D
C360       C2178   1.495   1_565  S
C361        H366   1.085       .  S
C361        C362   1.377       .  D
C362       C1474   1.477       .  S
C367        C368   1.550       .  S
C367        C373   1.551       .  S
C367        C371   1.578       .  S
C368        H375   1.084       .  S
C368        C369   1.369       .  D
C369        C370   1.517       .  S
C369       C1458   1.476       .  S
C370        C374   1.518       .  S
C370        C372   1.519       .  S
C370        H376   1.112       .  S
C371        H377   1.079       .  S
C371        C372   1.380       .  D
C372       C1541   1.511       .  S
C373        H378   1.078       .  S
C373        C374   1.375       .  D
C374       C2005   1.485       .  S
C379        C380   1.570       .  S
C379        C385   1.564       .  S
C379        C383   1.552       .  S
C379        C839   1.568       .  S
C380        H387   1.082       .  S
C380        C381   1.388       .  D
C381        C382   1.523       .  S
C381       C1426   1.508       .  S
C382        C386   1.515       .  S
C382        C384   1.521       .  S
C382        H388   1.111       .  S
C383        H389   1.086       .  S
C383        C384   1.369       .  D
C384       C1442   1.488       .  S
C385        H390   1.085       .  S
C385        C386   1.368       .  D
C386       C1410   1.485       .  S
Zn391       O395   1.977       .  S
Zn391       O396   2.188       .  S
Zn391       O400   2.114       .  S
Zn391       O407   2.153       .  S
Zn392       O395   1.883       .  S
Zn392       O397   1.944       .  S
Zn392       O399   1.899       .  S
Zn392       O403   1.954       .  S
Zn393       O395   1.907       .  S
Zn393       O398   1.943       .  S
Zn393       O401   2.013       .  S
Zn393       O404   2.017       .  S
Zn394       O395   1.909       .  S
Zn394       O402   2.047       .  S
Zn394       O405   2.028       .  S
Zn394       O406   1.917       .  S
O396        C408   1.295       .  A
O397        C409   1.261       .  A
O398        C410   1.259       .  A
O399        C408   1.259       .  A
O400        C410   1.286       .  A
O401        C409   1.275       .  A
O402        C411   1.283       .  A
O403        C412   1.268       .  A
O404        C411   1.275       .  A
O405        C412   1.276       .  A
O406        C413   1.256       .  A
O407        C413   1.292       .  A
C408       C1394   1.507       .  S
C409       C1925   1.476       .  S
C410       C1381   1.478       .  S
C411       C1362   1.502       .  S
C412       C1346   1.484       .  S
C413       C1429   1.508       .  S
C414        C415   1.561       .  S
C414        C420   1.555       .  S
C414        C418   1.570       .  S
C414        C832   1.574       .  S
C415        H422   1.085       .  S
C415        C416   1.381       .  D
C416        C417   1.522       .  S
C416       C1378   1.490       .  S
C417        C421   1.523       .  S
C417        C419   1.515       .  S
C417        H423   1.113       .  S
C418        H424   1.082       .  S
C418        C419   1.370       .  D
C419       C1314   1.499       .  S
C420        H425   1.080       .  S
C420        C421   1.368       .  D
C421       C1333   1.486       .  S
Zn426       O430   1.915       .  S
Zn426       O431   2.013       .  S
Zn426       O435   1.949       .  S
Zn426       O442   1.988       .  S
Zn427       O430   1.879   1_545  S
Zn427       O432   1.959   1_545  S
Zn427       O434   1.993   1_545  S
Zn427       O438   2.014       .  S
Zn428       O430   1.964       .  S
Zn428       O433   2.072       .  S
Zn428       O436   2.102       .  S
Zn428       O439   2.134       .  S
Zn429       O430   1.878   1_545  S
Zn429       O437   1.943       .  S
Zn429       O440   1.988       .  S
Zn429       O441   2.057       .  S
O431        C443   1.273       .  A
O432        C444   1.265       .  A
O433        C445   1.276       .  A
O434        C443   1.276       .  A
O435        C445   1.259       .  A
O436        C444   1.285       .  A
O437        C446   1.257   1_545  A
O438        C447   1.276       .  A
O439        C446   1.286       .  A
O440        C447   1.276       .  A
O441        C448   1.278   1_545  A
O442        C448   1.275       .  A
C443       C1493   1.472       .  S
C444       C2357   1.485       .  S
C445       C2293   1.496       .  S
C446       C2261   1.503   1_565  S
C447       C1298   1.480       .  S
C448       C1282   1.488       .  S
C449        C450   1.557       .  S
C449        C455   1.559       .  S
C449        C453   1.572       .  S
C450        H457   1.080       .  S
C450        C451   1.377       .  D
C451        C452   1.516       .  S
C451       C2133   1.483       .  S
C452        C456   1.509       .  S
C452        C454   1.508       .  S
C452        H458   1.113       .  S
C453        H459   1.083       .  S
C453        C454   1.366       .  D
C454       C1301   1.485       .  S
C455        H460   1.086       .  S
C455        C456   1.372       .  D
C456       C1266   1.480       .  S
Zn461       O465   1.910       .  S
Zn461       O466   2.005       .  S
Zn461       O470   1.923       .  S
Zn461       O477   2.066       .  S
Zn462       O465   1.918       .  S
Zn462       O467   1.955       .  S
Zn462       O469   2.051       .  S
Zn462       O473   2.010       .  S
Zn463       O465   1.973       .  S
Zn463       O468   2.090       .  S
Zn463       O471   2.119       .  S
Zn463       O474   2.118       .  S
Zn464       O465   1.884       .  S
Zn464       O472   1.915       .  S
Zn464       O475   2.022       .  S
Zn464       O476   1.977       .  S
O466        C478   1.279       .  A
O467        C479   1.257       .  A
O468        C480   1.282       .  A
O469        C478   1.279       .  A
O470        C480   1.260       .  A
O471        C479   1.280       .  A
O472        C481   1.260       .  A
O473        C482   1.277       .  A
O474        C481   1.289       .  A
O475        C482   1.274       .  A
O476        C483   1.271       .  A
O477        C483   1.280       .  A
C478       C1330   1.492       .  S
C479       C1218   1.504       .  S
C480       C1237   1.471       .  S
C481       C1269   1.472       .  S
C482       C1445   1.487       .  S
C483       C1250   1.501       .  S
C484        C485   1.541       .  S
C484        C490   1.526       .  S
C484        C488   1.533       .  S
C484        C720   1.589       .  S
C485        H492   1.078       .  S
C485        C486   1.376       .  D
C486        C487   1.570       .  S
C486        C496   1.569       .  S
C487        C491   1.582       .  S
C487        C489   1.586       .  S
C487        H493   1.109       .  S
C488        H494   1.081       .  S
C488        C489   1.375       .  D
C489        C508   1.574       .  S
C490        H495   1.082       .  S
C490        C491   1.368       .  D
C491        C520   1.556       .  S
C496        C497   1.570       .  S
C496        C502   1.565       .  S
C496        C500   1.552       .  S
C497        H504   1.082       .  S
C497        C498   1.364       .  D
C498        C499   1.503       .  S
C498       C1234   1.477   1_565  S
C499        C503   1.523       .  S
C499        C501   1.516       .  S
C499        H505   1.112       .  S
C500        H506   1.085       .  S
C500        C501   1.368       .  D
C501       C1285   1.476       .  S
C502        H507   1.080       .  S
C502        C503   1.388       .  D
C503       C1202   1.509       .  S
C508        C509   1.574       .  S
C508        C514   1.554       .  S
C508        C512   1.562       .  S
C509        H516   1.082   1_655  S
C509        C510   1.373   1_655  D
C510        C511   1.513   1_455  S
C510       C1669   1.502       .  S
C511        C515   1.521       .  S
C511        C513   1.520       .  S
C511        H517   1.112       .  S
C512        H518   1.084       .  S
C512        C513   1.380       .  D
C513       C1186   1.496       .  S
C514        H519   1.085       .  S
C514        C515   1.372       .  D
C515       C1573   1.482       .  S
C520        C521   1.538       .  S
C520        C526   1.552       .  S
C520        C524   1.578       .  S
C521        H528   1.085       .  S
C521        C522   1.359       .  D
C522        C523   1.528       .  S
C522       C1349   1.468       .  S
C523        C527   1.531       .  S
C523        C525   1.521       .  S
C523        H529   1.110       .  S
C524        H530   1.083       .  S
C524        C525   1.378       .  D
C525       C2037   1.511       .  S
C526        H531   1.082       .  S
C526        C527   1.376       .  D
C527       C1509   1.492       .  S
C532        C533   1.546       .  S
C532        C538   1.565       .  S
C532        C536   1.576       .  S
C532        C586   1.565       .  S
C533        H540   1.085       .  S
C533        C534   1.371       .  D
C534        C535   1.522       .  S
C534       C1605   1.469       .  S
C535        C539   1.507       .  S
C535        C537   1.507       .  S
C535        H541   1.113       .  S
C536        H542   1.084       .  S
C536        C537   1.374       .  D
C537       C1170   1.506       .  S
C538        H543   1.085       .  S
C538        C539   1.380       .  D
C539       C1637   1.485       .  S
Zn544       O548   1.863   1_554  S
Zn544       O549   2.012       .  S
Zn544       O553   1.968   1_554  S
Zn544       O560   1.948   1_554  S
Zn545       O548   1.898   1_554  S
Zn545       O550   2.020   1_554  S
Zn545       O552   1.996       .  S
Zn545       O556   1.956       .  S
Zn546       O548   1.886       .  S
Zn546       O551   2.025       .  S
Zn546       O554   2.006       .  S
Zn546       O557   1.919       .  S
Zn547       O548   1.958       .  S
Zn547       O555   2.136       .  S
Zn547       O558   2.098       .  S
Zn547       O559   2.150       .  S
O549        C561   1.273       .  A
O550        C562   1.275       .  A
O551        C563   1.277       .  A
O552        C561   1.278       .  A
O553        C563   1.270       .  A
O554        C562   1.278       .  A
O555        C564   1.290       .  A
O556        C565   1.262   1_554  A
O557        C564   1.261       .  A
O558        C565   1.282       .  A
O559        C566   1.285       .  A
O560        C566   1.256       .  A
C561       C1157   1.493       .  S
C562       C1461   1.491       .  S
C563       C1909   1.490       .  S
C564       C2101   1.479       .  S
C565       C1781   1.493   1_556  S
C566       C2053   1.511   1_556  S
C567        C568   1.573       .  S
C567        C573   1.563       .  S
C567        C571   1.572       .  S
C567        C581   1.593       .  S
C568        H575   1.085       .  S
C568        C569   1.392       .  D
C569        C570   1.521       .  S
C569       C1525   1.510       .  S
C570        C574   1.513       .  S
C570        C572   1.503       .  S
C570        H576   1.113       .  S
C571        H577   1.080       .  S
C571        C572   1.357       .  D
C572       C1154   1.476       .  S
C573        H578   1.074       .  S
C573        C574   1.375       .  D
C574       C1365   1.488       .  S
C579        C580   1.535       .  S
C579        C585   1.525       .  S
C579        C583   1.541       .  S
C579        C813   1.605       .  S
C580        H587   1.077       .  S
C580        C581   1.379       .  D
C581        C582   1.587       .  S
C582        C586   1.592       .  S
C582        C584   1.592       .  S
C582        H588   1.109       .  S
C583        H589   1.075       .  S
C583        C584   1.377       .  D
C584        C591   1.592       .  S
C585        H590   1.084       .  S
C585        C586   1.370       .  D
C591        C592   1.584       .  S
C591        C597   1.561       .  S
C591        C595   1.560       .  S
C592        H599   1.079       .  S
C592        C593   1.370       .  D
C593        C594   1.503       .  S
C593       C1138   1.494       .  S
C594        C598   1.510       .  S
C594        C596   1.522       .  S
C594        H600   1.113       .  S
C595        H601   1.085       .  S
C595        C596   1.383       .  D
C596       C2117   1.493       .  S
C597        H602   1.072       .  S
C597        C598   1.375       .  D
C598       C1221   1.488       .  S
Zn603       O607   1.900       .  S
Zn603       O608   2.001       .  S
Zn603       O612   1.951       .  S
Zn603       O619   1.998       .  S
Zn604       O607   1.879       .  S
Zn604       O609   1.904       .  S
Zn604       O611   1.991       .  S
Zn604       O615   2.018       .  S
Zn605       O607   1.975       .  S
Zn605       O610   2.143       .  S
Zn605       O613   2.099       .  S
Zn605       O616   2.129   1_565  S
Zn606       O607   1.889       .  S
Zn606       O614   1.946   1_565  S
Zn606       O617   1.999       .  S
Zn606       O618   1.991   1_565  S
O608        C620   1.277       .  A
O609        C621   1.261       .  A
O610        C622   1.289       .  A
O611        C620   1.271       .  A
O612        C622   1.264       .  A
O613        C621   1.285       .  A
O614        C623   1.260       .  A
O615        C624   1.274       .  A
O616        C623   1.286       .  A
O617        C624   1.271       .  A
O618        C625   1.273   1_545  A
O619        C625   1.274       .  A
C620       C1685   1.487       .  S
C621       C1477   1.479       .  S
C622       C1205   1.508       .  S
C623       C1141   1.484       .  S
C624       C1861   1.482       .  S
C625       C1122   1.480   1_565  S
C626        C627   1.578   1_545  S
C626        C632   1.533       .  S
C626        C630   1.571       .  S
C626        C827   1.573       .  S
C627        H634   1.077       .  S
C627        C628   1.383       .  D
C628        C629   1.527   1_565  S
C628       C1557   1.515       .  S
C629        C633   1.522       .  S
C629        C631   1.510       .  S
C629        H635   1.111       .  S
C630        H636   1.079       .  S
C630        C631   1.380       .  D
C631       C1106   1.500       .  S
C632        H637   1.077       .  S
C632        C633   1.351       .  D
C633       C1125   1.460       .  S
C638        C639   1.543       .  S
C638        C644   1.545       .  S
C638        C642   1.583       .  S
C639        H646   1.085       .  S
C639        C640   1.372       .  D
C640        C641   1.524       .  S
C640       C1093   1.475       .  S
C641        C645   1.516       .  S
C641        C643   1.522       .  S
C641        H647   1.110       .  S
C642        H648   1.076       .  S
C642        C643   1.383       .  D
C643       C1397   1.522       .  S
C644        H649   1.076       .  S
C644        C645   1.360       .  D
C645       C1074   1.474       .  S
Zn650       O654   1.890       .  S
Zn650       O655   2.021       .  S
Zn650       O659   1.938       .  S
Zn650       O666   2.035       .  S
Zn651       O654   1.886   1_655  S
Zn651       O656   1.922       .  S
Zn651       O658   2.002       .  S
Zn651       O662   2.014       .  S
Zn652       O654   1.993       .  S
Zn652       O657   2.155       .  S
Zn652       O660   2.125       .  S
Zn652       O663   2.120       .  S
Zn653       O654   1.905   1_655  S
Zn653       O661   1.935       .  S
Zn653       O664   1.993       .  S
Zn653       O665   2.001   1_655  S
O655        C667   1.278       .  A
O656        C668   1.263       .  A
O657        C669   1.289       .  A
O658        C667   1.275   1_655  A
O659        C669   1.263       .  A
O660        C668   1.289   1_455  A
O661        C670   1.256   1_655  A
O662        C671   1.273       .  A
O663        C670   1.283       .  A
O664        C671   1.269       .  A
O665        C672   1.273       .  A
O666        C672   1.281       .  A
C667       C1061   1.478       .  S
C668       C1941   1.491       .  S
C669       C1173   1.511       .  S
C670       C1189   1.497       .  S
C671       C1413   1.478       .  S
C672       C1077   1.483       .  S
C673        C674   1.568       .  S
C673        C679   1.541       .  S
C673        C677   1.557       .  S
C674        H681   1.084       .  S
C674        C675   1.369       .  D
C675        C676   1.514       .  S
C675       C1058   1.490       .  S
C676        C680   1.521       .  S
C676        C678   1.524       .  S
C676        H682   1.112       .  S
C677        H683   1.083       .  S
C677        C678   1.382       .  D
C678       C1253   1.501   1_455  S
C679        H684   1.085       .  S
C679        C680   1.359       .  D
C680       C1045   1.466       .  S
C685        C686   1.550       .  S
C685        C691   1.547       .  S
C685        C689   1.576       .  S
C686        H693   1.084       .  S
C686        C687   1.368       .  D
C687        C688   1.523       .  S
C687       C1010   1.485       .  S
C688        C692   1.521       .  S
C688        C690   1.528       .  S
C688        H694   1.110       .  S
C689        H695   1.083       .  S
C689        C690   1.389       .  D
C690        C994   1.512   1_565  S
C691        H696   1.086       .  S
C691        C692   1.348       .  D
C692       C1026   1.465   1_556  S
Zn697       O701   1.875   1_554  S
Zn697       O702   2.023       .  S
Zn697       O706   1.891   1_554  S
Zn697       O713   1.961       .  S
Zn698       O701   1.887       .  S
Zn698       O703   1.956       .  S
Zn698       O705   1.973       .  S
Zn698       O709   1.980   1_565  S
Zn699       O701   1.958   1_655  S
Zn699       O704   2.130   1_655  S
Zn699       O707   2.061       .  S
Zn699       O710   2.091       .  S
Zn700       O701   1.895   1_545  S
Zn700       O708   1.953   1_455  S
Zn700       O711   2.018       .  S
Zn700       O712   2.045   1_556  S
O702        C714   1.276   1_554  A
O703        C715   1.263       .  A
O704        C716   1.290       .  A
O705        C714   1.267       .  A
O706        C716   1.260       .  A
O707        C715   1.273   1_655  A
O708        C717   1.264       .  A
O709        C718   1.271       .  A
O710        C717   1.286   1_565  A
O711        C718   1.281       .  A
O712        C719   1.279   1_545  A
O713        C719   1.268       .  A
C714       C1013   1.492       .  S
C715       C2245   1.489       .  S
C716       C1826   1.496       .  S
C717       C2341   1.482       .  S
C718        C962   1.458       .  S
C719        C981   1.483   1_455  S
C720        C721   1.552       .  S
C720        C726   1.559       .  S
C720        C724   1.560       .  S
C721        H728   1.085       .  S
C721        C722   1.366       .  D
C722        C723   1.527   1_655  S
C722        C930   1.483   1_665  S
C723        C727   1.527       .  S
C723        C725   1.523   1_455  S
C723        H729   1.112       .  S
C724        H730   1.085       .  S
C724        C725   1.367       .  D
C725        C978   1.485       .  S
C726        H731   1.085   1_655  S
C726        C727   1.373   1_655  D
C727        C946   1.488       .  S
C732        C733   1.562       .  S
C732        C738   1.540       .  S
C732        C736   1.549   1_655  S
C733        H740   1.085       .  S
C733        C734   1.380       .  D
C734        C735   1.526   1_655  S
C734        C901   1.503       .  S
C735        C739   1.532       .  S
C735        C737   1.523       .  S
C735        H741   1.110       .  S
C736        H742   1.086       .  S
C736        C737   1.362       .  D
C737        C914   1.471       .  S
C738        H743   1.086       .  S
C738        C739   1.360   1_655  D
C739        C965   1.474       .  S
Zn744       O748   1.881       .  S
Zn744       O749   1.894       .  S
Zn744       O753   2.023       .  S
Zn744       O760   2.012       .  S
Zn745       O748   1.976   1_554  S
Zn745       O750   2.131   1_554  S
Zn745       O752   2.091   1_554  S
Zn745       O756   2.084       .  S
Zn746       O748   1.902       .  S
Zn746       O751   1.974       .  S
Zn746       O754   1.965       .  S
Zn746       O757   1.994       .  S
Zn747       O748   1.891       .  S
Zn747       O755   2.016       .  S
Zn747       O758   1.903   1_556  S
Zn747       O759   2.035       .  S
O749        C761   1.256       .  A
O750        C762   1.287       .  A
O751        C763   1.269       .  A
O752        C761   1.285       .  A
O753        C763   1.274       .  A
O754        C762   1.260       .  A
O755        C764   1.280       .  A
O756        C765   1.281       .  A
O757        C764   1.272       .  A
O758        C765   1.259       .  A
O759        C766   1.277       .  A
O760        C766   1.276       .  A
C761        C917   1.479       .  S
C762        C997   1.496       .  S
C763       C2197   1.478       .  S
C764       C2066   1.476   1_556  S
C765        C882   1.485       .  S
C766       C1813   1.505       .  S
Zn767       O771   1.896       .  S
Zn767       O772   2.019       .  S
Zn767       O776   2.016       .  S
Zn767       O783   1.916       .  S
Zn768       O771   1.880   1_545  S
Zn768       O773   1.952       .  S
Zn768       O775   1.963   1_545  S
Zn768       O779   1.949       .  S
Zn769       O771   1.887   1_545  S
Zn769       O774   1.991   1_545  S
Zn769       O777   2.022       .  S
Zn769       O780   1.946       .  S
Zn770       O771   1.953       .  S
Zn770       O778   2.147       .  S
Zn770       O781   2.146       .  S
Zn770       O782   2.136       .  S
O772        C784   1.279       .  A
O773        C785   1.263       .  A
O774        C786   1.274       .  A
O775        C784   1.265       .  A
O776        C786   1.276       .  A
O777        C785   1.274       .  A
O778        C787   1.293       .  A
O779        C788   1.260   1_545  A
O780        C787   1.266   1_545  A
O781        C788   1.288       .  A
O782        C789   1.289       .  A
O783        C789   1.259       .  A
C784       C1029   1.461       .  S
C785        C866   1.474       .  S
C786        C949   1.484       .  S
C787       C1877   1.495       .  S
C788       C1109   1.499   1_565  S
C789       C1765   1.483       .  S
Zn790       O794   1.970       .  S
Zn790       O795   2.127       .  S
Zn790       O799   2.145       .  S
Zn790       O806   2.070       .  S
Zn791       O794   1.900       .  S
Zn791       O796   1.964       .  S
Zn791       O798   1.953       .  S
Zn791       O802   1.988       .  S
Zn792       O794   1.893   1_655  S
Zn792       O797   1.935       .  S
Zn792       O800   2.027       .  S
Zn792       O803   2.019       .  S
Zn793       O794   1.903   1_655  S
Zn793       O801   2.021       .  S
Zn793       O804   2.023   1_655  S
Zn793       O805   1.905       .  S
O795        C807   1.282       .  A
O796        C808   1.272       .  A
O797        C809   1.261       .  A
O798        C807   1.261       .  A
O799        C809   1.293   1_455  A
O800        C808   1.273   1_655  A
O801        C810   1.277       .  A
O802        C811   1.269       .  A
O803        C810   1.276       .  A
O804        C811   1.278       .  A
O805        C812   1.257   1_655  A
O806        C812   1.282       .  A
C807        C850   1.508       .  S
C808       C1090   1.495       .  S
C809        C898   1.507       .  S
C810       C1317   1.493       .  S
C811       C1042   1.475       .  S
C812        C933   1.474       .  S
C813        C814   1.563       .  S
C813        C819   1.557       .  S
C813        C817   1.574       .  S
C814        H821   1.084       .  S
C814        C815   1.373       .  D
C815        C816   1.514       .  S
C815        C885   1.481       .  S
C816        C820   1.509       .  S
C816        C818   1.509       .  S
C816        H822   1.113       .  S
C817        H823   1.084       .  S
C817        C818   1.380       .  D
C818        C853   1.496       .  S
C819        H824   1.085       .  S
C819        C820   1.358       .  D
C820        C869   1.467       .  S
C825        C826   1.548       .  S
C825        C831   1.542       .  S
C825        C829   1.530       .  S
C826        H833   1.079       .  S
C826        C827   1.369       .  D
C827        C828   1.576       .  S
C828        C832   1.573       .  S
C828        C830   1.574       .  S
C828        H834   1.110       .  S
C829        H835   1.078       .  S
C829        C830   1.376       .  D
C831        H836   1.081       .  S
C831        C832   1.379       .  D
C837        C838   1.545       .  S
C837        C843   1.537       .  S
C837        C841   1.533       .  S
C838        H845   1.085       .  S
C838        C839   1.379       .  D
C839        C840   1.573       .  S
C840        C844   1.582       .  S
C840        C842   1.571       .  S
C840        H846   1.109       .  S
C841        H847   1.076       .  S
C841        C842   1.367       .  D
C843        H848   1.079       .  S
C843        C844   1.379       .  D
C849        C850   1.407       .  A
C849        C854   1.413       .  A
C849        H856   1.084       .  S
C850        C851   1.425       .  A
C851        C852   1.411       .  A
C851        C858   1.506       .  S
C852        C853   1.400       .  A
C852        H857   1.085       .  S
C853        C854   1.419       .  A
C854        C855   1.503       .  S
C855        H859   1.111       .  S
C855        H860   1.107       .  S
C855        H861   1.110       .  S
C858        H862   1.102       .  S
C858        H863   1.110       .  S
C858        H864   1.110       .  S
C865        C866   1.409       .  A
C865        C870   1.399       .  A
C865        H872   1.084       .  S
C866        C867   1.413       .  A
C867        C868   1.402       .  A
C867        C874   1.508       .  S
C868        C869   1.406       .  A
C868        H873   1.082       .  S
C869        C870   1.403       .  A
C870        C871   1.507       .  S
C871        H875   1.111       .  S
C871        H876   1.109       .  S
C871        H877   1.110       .  S
C874        H878   1.110       .  S
C874        H879   1.110       .  S
C874        H880   1.111       .  S
C881        C882   1.415       .  A
C881        C886   1.400       .  A
C881        H888   1.084       .  S
C882        C883   1.409       .  A
C883        C884   1.403       .  A
C883        C890   1.507       .  S
C884        C885   1.408       .  A
C884        H889   1.074       .  S
C885        C886   1.407       .  A
C886        C887   1.509       .  S
C887        H891   1.111       .  S
C887        H892   1.110       .  S
C887        H893   1.110       .  S
C890        H894   1.110       .  S
C890        H895   1.110       .  S
C890        H896   1.110       .  S
C897        C898   1.402       .  A
C897        C902   1.409       .  A
C897        H904   1.084   1_655  S
C898        C899   1.437       .  A
C899        C900   1.407       .  A
C899        C906   1.511       .  S
C900        C901   1.396   1_554  A
C900        H905   1.084       .  S
C901        C902   1.421   1_556  A
C902        C903   1.500   1_554  S
C903        H907   1.110   1_655  S
C903        H908   1.111   1_556  S
C903        H909   1.104       .  S
C906        H910   1.104       .  S
C906        H911   1.108       .  S
C906        H912   1.111       .  S
C913        C914   1.392       .  A
C913        C918   1.400       .  A
C913        H920   1.085       .  S
C914        C915   1.410       .  A
C915        C916   1.399       .  A
C915        C922   1.500   1_556  S
C916        C917   1.399       .  A
C916        H921   1.084   1_556  S
C917        C918   1.432       .  A
C918        C919   1.513       .  S
C919        H923   1.111       .  S
C919        H924   1.111       .  S
C919        H925   1.110       .  S
C922        H926   1.107       .  S
C922        H927   1.109       .  S
C922        H928   1.110       .  S
C929        C930   1.398   1_655  A
C929        C934   1.403       .  A
C929        H936   1.084       .  S
C930        C931   1.411       .  A
C931        C932   1.396       .  A
C931        C938   1.494       .  S
C932        C933   1.397       .  A
C932        H937   1.085       .  S
C933        C934   1.426   1_455  A
C934        C935   1.511       .  S
C935        H939   1.111       .  S
C935        H940   1.111       .  S
C935        H941   1.109       .  S
C938        H942   1.108   1_545  S
C938        H943   1.105   1_545  S
C938        H944   1.111       .  S
C945        C946   1.396       .  A
C945        C950   1.406       .  A
C945        H952   1.084       .  S
C946        C947   1.414       .  A
C947        C948   1.406       .  A
C947        C954   1.493       .  S
C948        C949   1.397       .  A
C948        H953   1.084       .  S
C949        C950   1.424       .  A
C950        C951   1.509       .  S
C951        H955   1.110       .  S
C951        H956   1.108       .  S
C951        H957   1.111       .  S
C954        H958   1.110       .  S
C954        H959   1.109       .  S
C954        H960   1.103       .  S
C961        C962   1.392       .  A
C961        C966   1.397       .  A
C961        H968   1.084       .  S
C962        C963   1.415       .  A
C963        C964   1.400   1_455  A
C963        C970   1.507   1_455  S
C964        C965   1.399   1_655  A
C964        H969   1.084       .  S
C965        C966   1.411       .  A
C966        C967   1.494       .  S
C967        H971   1.110       .  S
C967        H972   1.108       .  S
C967        H973   1.106       .  S
C970        H974   1.107       .  S
C970        H975   1.110       .  S
C970        H976   1.111       .  S
C977        C978   1.396       .  A
C977        C982   1.406       .  A
C977        H984   1.084       .  S
C978        C979   1.411       .  A
C979        C980   1.402   1_565  A
C979        C986   1.491   1_565  S
C980        C981   1.395   1_545  A
C980        H985   1.084       .  S
C981        C982   1.426       .  A
C982        C983   1.511       .  S
C983        H987   1.111       .  S
C983        H988   1.108   1_655  S
C983        H989   1.110       .  S
C986        H990   1.103       .  S
C986        H991   1.109       .  S
C986        H992   1.110       .  S
C993        C994   1.411       .  A
C993        C998   1.406       .  A
C993       H1000   1.079       .  S
C994        C995   1.416       .  A
C995        C996   1.417       .  A
C995       C1002   1.504       .  S
C996        C997   1.414       .  A
C996       H1001   1.084       .  S
C997        C998   1.410       .  A
C998        C999   1.507   1_556  S
C999       H1003   1.104       .  S
C999       H1004   1.110       .  S
C999       H1005   1.106       .  S
C1002      H1006   1.105   1_545  S
C1002      H1007   1.109       .  S
C1002      H1008   1.111       .  S
C1009      C1010   1.398       .  A
C1009      C1014   1.401       .  A
C1009      H1016   1.083       .  S
C1010      C1011   1.411   1_556  A
C1011      C1012   1.404       .  A
C1011      C1018   1.502       .  S
C1012      C1013   1.406   1_554  A
C1012      H1017   1.084       .  S
C1013      C1014   1.428       .  A
C1014      C1015   1.512       .  S
C1015      H1019   1.111       .  S
C1015      H1020   1.110       .  S
C1015      H1021   1.110       .  S
C1018      H1022   1.102       .  S
C1018      H1023   1.110       .  S
C1018      H1024   1.111       .  S
C1025      C1026   1.403       .  A
C1025      C1030   1.403       .  A
C1025      H1032   1.084       .  S
C1026      C1027   1.408       .  A
C1027      C1028   1.395       .  A
C1027      C1034   1.505       .  S
C1028      C1029   1.399       .  A
C1028      H1033   1.085       .  S
C1029      C1030   1.409       .  A
C1030      C1031   1.506   1_565  S
C1031      H1035   1.111       .  S
C1031      H1036   1.109       .  S
C1031      H1037   1.108       .  S
C1034      H1038   1.109       .  S
C1034      H1039   1.108       .  S
C1034      H1040   1.110       .  S
C1041      C1042   1.400       .  A
C1041      C1046   1.402       .  A
C1041      H1048   1.084       .  S
C1042      C1043   1.418       .  A
C1043      C1044   1.401       .  A
C1043      C1050   1.502       .  S
C1044      C1045   1.396       .  A
C1044      H1049   1.085       .  S
C1045      C1046   1.411       .  A
C1046      C1047   1.499       .  S
C1047      H1051   1.110       .  S
C1047      H1052   1.111       .  S
C1047      H1053   1.108       .  S
C1050      H1054   1.109       .  S
C1050      H1055   1.107       .  S
C1050      H1056   1.111       .  S
C1057      C1058   1.409       .  A
C1057      C1062   1.402   1_455  A
C1057      H1064   1.078   1_455  S
C1058      C1059   1.410       .  A
C1059      C1060   1.409       .  A
C1059      C1066   1.508       .  S
C1060      C1061   1.410       .  A
C1060      H1065   1.084       .  S
C1061      C1062   1.404   1_455  A
C1062      C1063   1.505       .  S
C1063      H1067   1.106       .  S
C1063      H1068   1.110       .  S
C1063      H1069   1.110       .  S
C1066      H1070   1.107       .  S
C1066      H1071   1.110       .  S
C1066      H1072   1.111       .  S
C1073      C1074   1.403       .  A
C1073      C1078   1.406       .  A
C1073      H1080   1.081       .  S
C1074      C1075   1.405       .  A
C1075      C1076   1.402       .  A
C1075      C1082   1.503       .  S
C1076      C1077   1.407       .  A
C1076      H1081   1.084       .  S
C1077      C1078   1.417       .  A
C1078      C1079   1.508       .  S
C1079      H1083   1.111   1_455  S
C1079      H1084   1.110       .  S
C1079      H1085   1.111   1_455  S
C1082      H1086   1.111       .  S
C1082      H1087   1.107       .  S
C1082      H1088   1.110       .  S
C1089      C1090   1.407       .  A
C1089      C1094   1.396       .  A
C1089      H1096   1.084       .  S
C1090      C1091   1.425       .  A
C1091      C1092   1.408       .  A
C1091      C1098   1.503       .  S
C1092      C1093   1.401       .  A
C1092      H1097   1.084       .  S
C1093      C1094   1.408       .  A
C1094      C1095   1.504       .  S
C1095      H1099   1.108       .  S
C1095      H1100   1.110       .  S
C1095      H1101   1.109       .  S
C1098      H1102   1.110   1_455  S
C1098      H1103   1.108       .  S
C1098      H1104   1.111       .  S
C1105      C1106   1.403       .  A
C1105      C1110   1.411       .  A
C1105      H1112   1.079       .  S
C1106      C1107   1.419   1_545  A
C1107      C1108   1.412       .  A
C1107      C1114   1.502       .  S
C1108      C1109   1.405   1_565  A
C1108      H1113   1.084       .  S
C1109      C1110   1.422       .  A
C1110      C1111   1.509       .  S
C1111      H1115   1.111       .  S
C1111      H1116   1.110       .  S
C1111      H1117   1.109       .  S
C1114      H1118   1.109       .  S
C1114      H1119   1.107       .  S
C1114      H1120   1.110       .  S
C1121      C1122   1.407       .  A
C1121      C1126   1.400       .  A
C1121      H1128   1.084       .  S
C1122      C1123   1.423       .  A
C1123      C1124   1.399       .  A
C1123      C1130   1.507   1_545  S
C1124      C1125   1.394       .  A
C1124      H1129   1.084       .  S
C1125      C1126   1.402       .  A
C1126      C1127   1.504       .  S
C1127      H1131   1.111       .  S
C1127      H1132   1.108       .  S
C1127      H1133   1.111       .  S
C1130      H1134   1.106       .  S
C1130      H1135   1.110       .  S
C1130      H1136   1.111       .  S
C1137      C1138   1.404       .  A
C1137      C1142   1.410       .  A
C1137      H1144   1.079       .  S
C1138      C1139   1.413       .  A
C1139      C1140   1.406       .  A
C1139      C1146   1.500       .  S
C1140      C1141   1.406       .  A
C1140      H1145   1.085       .  S
C1141      C1142   1.413       .  A
C1142      C1143   1.504       .  S
C1143      H1147   1.110       .  S
C1143      H1148   1.102       .  S
C1143      H1149   1.109       .  S
C1146      H1150   1.111       .  S
C1146      H1151   1.105       .  S
C1146      H1152   1.109       .  S
C1153      C1154   1.398       .  A
C1153      C1158   1.406       .  A
C1153      H1160   1.083       .  S
C1154      C1155   1.406       .  A
C1155      C1156   1.399       .  A
C1155      C1162   1.500       .  S
C1156      C1157   1.407       .  A
C1156      H1161   1.084       .  S
C1157      C1158   1.424       .  A
C1158      C1159   1.505       .  S
C1159      H1163   1.111       .  S
C1159      H1164   1.109       .  S
C1159      H1165   1.106       .  S
C1162      H1166   1.108       .  S
C1162      H1167   1.111       .  S
C1162      H1168   1.107       .  S
C1169      C1170   1.416       .  A
C1169      C1174   1.420       .  A
C1169      H1176   1.084       .  S
C1170      C1171   1.413       .  A
C1171      C1172   1.405       .  A
C1171      C1178   1.510       .  S
C1172      C1173   1.415       .  A
C1172      H1177   1.084       .  S
C1173      C1174   1.415       .  A
C1174      C1175   1.505       .  S
C1175      H1179   1.111       .  S
C1175      H1180   1.111       .  S
C1175      H1181   1.110       .  S
C1178      H1182   1.109       .  S
C1178      H1183   1.110       .  S
C1178      H1184   1.111       .  S
C1185      C1186   1.412   1_455  A
C1185      C1190   1.403       .  A
C1185      H1192   1.075       .  S
C1186      C1187   1.405       .  A
C1187      C1188   1.407       .  A
C1187      C1194   1.507       .  S
C1188      C1189   1.421   1_655  A
C1188      H1193   1.083       .  S
C1189      C1190   1.408       .  A
C1190      C1191   1.507       .  S
C1191      H1195   1.111       .  S
C1191      H1196   1.110       .  S
C1191      H1197   1.110       .  S
C1194      H1198   1.110       .  S
C1194      H1199   1.108       .  S
C1194      H1200   1.111       .  S
C1201      C1202   1.416       .  A
C1201      C1206   1.412       .  A
C1201      H1208   1.083       .  S
C1202      C1203   1.412       .  A
C1203      C1204   1.411       .  A
C1203      C1210   1.508       .  S
C1204      C1205   1.418       .  A
C1204      H1209   1.082       .  S
C1205      C1206   1.411       .  A
C1206      C1207   1.506       .  S
C1207      H1211   1.111       .  S
C1207      H1212   1.111       .  S
C1207      H1213   1.110       .  S
C1210      H1214   1.109       .  S
C1210      H1215   1.109       .  S
C1210      H1216   1.111       .  S
C1217      C1218   1.414       .  A
C1217      C1222   1.408       .  A
C1217      H1224   1.082       .  S
C1218      C1219   1.416       .  A
C1219      C1220   1.412       .  A
C1219      C1226   1.503       .  S
C1220      C1221   1.406       .  A
C1220      H1225   1.079       .  S
C1221      C1222   1.406       .  A
C1222      C1223   1.508       .  S
C1223      H1227   1.111       .  S
C1223      H1228   1.109       .  S
C1223      H1229   1.110       .  S
C1226      H1230   1.109       .  S
C1226      H1231   1.106       .  S
C1226      H1232   1.109       .  S
C1233      C1234   1.398       .  A
C1233      C1238   1.401       .  A
C1233      H1240   1.084       .  S
C1234      C1235   1.416       .  A
C1235      C1236   1.406       .  A
C1235      C1242   1.503   1_545  S
C1236      C1237   1.400       .  A
C1236      H1241   1.085       .  S
C1237      C1238   1.416       .  A
C1238      C1239   1.508       .  S
C1239      H1243   1.111       .  S
C1239      H1244   1.110       .  S
C1239      H1245   1.107       .  S
C1242      H1246   1.110       .  S
C1242      H1247   1.106       .  S
C1242      H1248   1.111   1_565  S
C1249      C1250   1.411       .  A
C1249      C1254   1.404       .  A
C1249      H1256   1.084       .  S
C1250      C1251   1.412       .  A
C1251      C1252   1.415       .  A
C1251      C1258   1.505       .  S
C1252      C1253   1.416       .  A
C1252      H1257   1.084   1_655  S
C1253      C1254   1.414       .  A
C1254      C1255   1.508       .  S
C1255      H1259   1.110       .  S
C1255      H1260   1.109       .  S
C1255      H1261   1.111       .  S
C1258      H1262   1.110       .  S
C1258      H1263   1.110       .  S
C1258      H1264   1.109       .  S
C1265      C1266   1.398       .  A
C1265      C1270   1.401       .  A
C1265      H1272   1.084       .  S
C1266      C1267   1.415       .  A
C1267      C1268   1.410       .  A
C1267      C1274   1.500       .  S
C1268      C1269   1.403       .  A
C1268      H1273   1.084       .  S
C1269      C1270   1.415       .  A
C1270      C1271   1.502       .  S
C1271      H1275   1.111       .  S
C1271      H1276   1.108       .  S
C1271      H1277   1.104       .  S
C1274      H1278   1.099       .  S
C1274      H1279   1.110       .  S
C1274      H1280   1.111       .  S
C1281      C1282   1.409       .  A
C1281      C1286   1.402       .  A
C1281      H1288   1.083       .  S
C1282      C1283   1.412       .  A
C1283      C1284   1.410       .  A
C1283      C1290   1.504   1_565  S
C1284      C1285   1.407       .  A
C1284      H1289   1.082       .  S
C1285      C1286   1.405       .  A
C1286      C1287   1.508       .  S
C1287      H1291   1.111       .  S
C1287      H1292   1.111       .  S
C1287      H1293   1.109       .  S
C1290      H1294   1.110       .  S
C1290      H1295   1.110       .  S
C1290      H1296   1.109       .  S
C1297      C1298   1.411       .  A
C1297      C1302   1.403       .  A
C1297      H1304   1.083       .  S
C1298      C1299   1.408       .  A
C1299      C1300   1.406       .  A
C1299      C1306   1.505       .  S
C1300      C1301   1.411       .  A
C1300      H1305   1.080       .  S
C1301      C1302   1.405       .  A
C1302      C1303   1.508       .  S
C1303      H1307   1.111       .  S
C1303      H1308   1.110       .  S
C1303      H1309   1.108       .  S
C1306      H1310   1.110       .  S
C1306      H1311   1.110       .  S
C1306      H1312   1.110       .  S
C1313      C1314   1.400       .  A
C1313      C1318   1.410       .  A
C1313      H1320   1.084       .  S
C1314      C1315   1.415       .  A
C1315      C1316   1.405       .  A
C1315      C1322   1.493       .  S
C1316      C1317   1.400       .  A
C1316      H1321   1.085       .  S
C1317      C1318   1.425       .  A
C1318      C1319   1.508       .  S
C1319      H1323   1.111       .  S
C1319      H1324   1.111       .  S
C1319      H1325   1.108       .  S
C1322      H1326   1.102       .  S
C1322      H1327   1.103       .  S
C1322      H1328   1.111       .  S
C1329      C1330   1.410       .  A
C1329      C1334   1.403       .  A
C1329      H1336   1.085       .  S
C1330      C1331   1.411       .  A
C1331      C1332   1.413       .  A
C1331      C1338   1.502       .  S
C1332      C1333   1.408       .  A
C1332      H1337   1.081       .  S
C1333      C1334   1.404       .  A
C1334      C1335   1.506       .  S
C1335      H1339   1.107       .  S
C1335      H1340   1.110       .  S
C1335      H1341   1.109       .  S
C1338      H1342   1.109       .  S
C1338      H1343   1.110       .  S
C1338      H1344   1.110       .  S
C1345      C1346   1.405       .  A
C1345      C1350   1.398       .  A
C1345      H1352   1.084       .  S
C1346      C1347   1.423       .  A
C1347      C1348   1.404       .  A
C1347      C1354   1.504       .  S
C1348      C1349   1.394       .  A
C1348      H1353   1.084       .  S
C1349      C1350   1.406       .  A
C1350      C1351   1.500       .  S
C1351      H1355   1.110       .  S
C1351      H1356   1.111       .  S
C1351      H1357   1.105       .  S
C1354      H1358   1.110       .  S
C1354      H1359   1.102       .  S
C1354      H1360   1.111       .  S
C1361      C1362   1.411       .  A
C1361      C1366   1.412       .  A
C1361      H1368   1.083       .  S
C1362      C1363   1.420       .  A
C1363      C1364   1.411       .  A
C1363      C1370   1.506       .  S
C1364      C1365   1.403       .  A
C1364      H1369   1.081       .  S
C1365      C1366   1.409       .  A
C1366      C1367   1.508       .  S
C1367      H1371   1.111       .  S
C1367      H1372   1.110       .  S
C1367      H1373   1.109       .  S
C1370      H1374   1.109       .  S
C1370      H1375   1.110       .  S
C1370      H1376   1.109       .  S
C1377      C1378   1.404       .  A
C1377      C1382   1.402       .  A
C1377      H1384   1.077       .  S
C1378      C1379   1.415       .  A
C1379      C1380   1.410       .  A
C1379      C1386   1.504       .  S
C1380      C1381   1.409       .  A
C1380      H1385   1.085       .  S
C1381      C1382   1.409       .  A
C1382      C1383   1.507       .  S
C1383      H1387   1.107       .  S
C1383      H1388   1.105       .  S
C1383      H1389   1.110       .  S
C1386      H1390   1.105       .  S
C1386      H1391   1.106       .  S
C1386      H1392   1.110       .  S
C1393      C1394   1.417       .  A
C1393      C1398   1.412       .  A
C1393      H1400   1.085       .  S
C1394      C1395   1.407       .  A
C1395      C1396   1.417       .  A
C1395      C1402   1.504       .  S
C1396      C1397   1.419   1_655  A
C1396      H1401   1.077   1_655  S
C1397      C1398   1.416   1_455  A
C1398      C1399   1.508       .  S
C1399      H1403   1.111       .  S
C1399      H1404   1.108       .  S
C1399      H1405   1.107   1_655  S
C1402      H1406   1.110       .  S
C1402      H1407   1.110       .  S
C1402      H1408   1.108       .  S
C1409      C1410   1.412       .  A
C1409      C1414   1.408       .  A
C1409      H1416   1.082       .  S
C1410      C1411   1.405       .  A
C1411      C1412   1.404       .  A
C1411      C1418   1.507       .  S
C1412      C1413   1.409       .  A
C1412      H1417   1.085       .  S
C1413      C1414   1.404       .  A
C1414      C1415   1.502       .  S
C1415      H1419   1.107       .  S
C1415      H1420   1.110       .  S
C1415      H1421   1.110       .  S
C1418      H1422   1.108       .  S
C1418      H1423   1.110       .  S
C1418      H1424   1.111       .  S
C1425      C1426   1.396       .  A
C1425      C1430   1.414       .  A
C1425      H1432   1.082       .  S
C1426      C1427   1.418       .  A
C1427      C1428   1.404       .  A
C1427      C1434   1.487       .  S
C1428      C1429   1.395       .  A
C1428      H1433   1.084       .  S
C1429      C1430   1.438       .  A
C1430      C1431   1.507       .  S
C1431      H1435   1.108       .  S
C1431      H1436   1.110       .  S
C1431      H1437   1.102       .  S
C1434      H1438   1.111       .  S
C1434      H1439   1.106       .  S
C1434      H1440   1.105       .  S
C1441      C1442   1.397       .  A
C1441      C1446   1.407       .  A
C1441      H1448   1.085       .  S
C1442      C1443   1.416       .  A
C1443      C1444   1.405       .  A
C1443      C1450   1.498       .  S
C1444      C1445   1.398       .  A
C1444      H1449   1.084       .  S
C1445      C1446   1.424       .  A
C1446      C1447   1.507       .  S
C1447      H1451   1.111       .  S
C1447      H1452   1.106       .  S
C1447      H1453   1.108       .  S
C1450      H1454   1.107       .  S
C1450      H1455   1.107       .  S
C1450      H1456   1.111       .  S
C1457      C1458   1.406       .  A
C1457      C1462   1.408       .  A
C1457      H1464   1.080       .  S
C1458      C1459   1.402       .  A
C1459      C1460   1.400       .  A
C1459      C1466   1.504       .  S
C1460      C1461   1.411       .  A
C1460      H1465   1.083       .  S
C1461      C1462   1.418       .  A
C1462      C1463   1.507   1_556  S
C1463      H1467   1.111       .  S
C1463      H1468   1.110       .  S
C1463      H1469   1.110       .  S
C1466      H1470   1.111       .  S
C1466      H1471   1.109       .  S
C1466      H1472   1.107       .  S
C1473      C1474   1.411       .  A
C1473      C1478   1.403       .  A
C1473      H1480   1.081       .  S
C1474      C1475   1.405       .  A
C1475      C1476   1.399       .  A
C1475      C1482   1.508       .  S
C1476      C1477   1.413       .  A
C1476      H1481   1.083       .  S
C1477      C1478   1.407       .  A
C1478      C1479   1.506   1_565  S
C1479      H1483   1.111       .  S
C1479      H1484   1.110       .  S
C1479      H1485   1.110       .  S
C1482      H1486   1.110       .  S
C1482      H1487   1.110       .  S
C1482      H1488   1.111       .  S
C1489      C1490   1.411       .  A
C1489      C1494   1.407       .  A
C1489      H1496   1.083       .  S
C1490      C1491   1.403       .  A
C1491      C1492   1.399       .  A
C1491      C1498   1.507       .  S
C1492      C1493   1.407       .  A
C1492      H1497   1.085       .  S
C1493      C1494   1.407       .  A
C1494      C1495   1.505       .  S
C1495      H1499   1.111       .  S
C1495      H1500   1.110       .  S
C1495      H1501   1.111       .  S
C1498      H1502   1.110       .  S
C1498      H1503   1.110       .  S
C1498      H1504   1.111       .  S
C1505      C1506   1.398       .  A
C1505      C1510   1.403       .  A
C1505      H1512   1.085       .  S
C1506      C1507   1.422       .  A
C1507      C1508   1.412       .  A
C1507      C1514   1.508       .  S
C1508      C1509   1.403       .  A
C1508      H1513   1.084       .  S
C1509      C1510   1.415       .  A
C1510      C1511   1.496       .  S
C1511      H1515   1.106       .  S
C1511      H1516   1.110       .  S
C1511      H1517   1.108       .  S
C1514      H1518   1.109       .  S
C1514      H1519   1.110       .  S
C1514      H1520   1.111       .  S
C1521      C1522   1.418       .  A
C1521      C1526   1.412       .  A
C1521      H1528   1.084       .  S
C1522      C1523   1.413       .  A
C1523      C1524   1.411       .  A
C1523      C1530   1.507       .  S
C1524      C1525   1.415       .  A
C1524      H1529   1.076       .  S
C1525      C1526   1.414       .  A
C1526      C1527   1.506       .  S
C1527      H1531   1.110       .  S
C1527      H1532   1.109       .  S
C1527      H1533   1.102       .  S
C1530      H1534   1.110       .  S
C1530      H1535   1.110       .  S
C1530      H1536   1.111       .  S
C1537      C1538   1.416       .  A
C1537      C1542   1.404       .  A
C1537      H1544   1.082       .  S
C1538      C1539   1.410       .  A
C1539      C1540   1.419       .  A
C1539      C1546   1.503       .  S
C1540      C1541   1.419   1_554  A
C1540      H1545   1.082   1_554  S
C1541      C1542   1.412   1_556  A
C1542      C1543   1.510       .  S
C1543      H1547   1.111       .  S
C1543      H1548   1.107   1_554  S
C1543      H1549   1.107       .  S
C1546      H1550   1.110       .  S
C1546      H1551   1.110       .  S
C1546      H1552   1.111       .  S
C1553      C1554   1.413       .  A
C1553      C1558   1.414       .  A
C1553      H1560   1.084       .  S
C1554      C1555   1.411       .  A
C1555      C1556   1.408       .  A
C1555      C1562   1.506       .  S
C1556      C1557   1.413       .  A
C1556      H1561   1.080       .  S
C1557      C1558   1.417       .  A
C1558      C1559   1.507       .  S
C1559      H1563   1.111       .  S
C1559      H1564   1.109       .  S
C1559      H1565   1.106       .  S
C1562      H1566   1.110       .  S
C1562      H1567   1.110       .  S
C1562      H1568   1.107       .  S
C1569      C1570   1.401       .  A
C1569      C1574   1.406       .  A
C1569      H1576   1.084       .  S
C1570      C1571   1.422       .  A
C1571      C1572   1.408       .  A
C1571      C1578   1.508       .  S
C1572      C1573   1.398       .  A
C1572      H1577   1.084       .  S
C1573      C1574   1.415       .  A
C1574      C1575   1.501       .  S
C1575      H1579   1.109       .  S
C1575      H1580   1.110       .  S
C1575      H1581   1.108       .  S
C1578      H1582   1.107   1_655  S
C1578      H1583   1.111       .  S
C1578      H1584   1.111       .  S
C1585      C1586   1.415       .  A
C1585      C1590   1.409       .  A
C1585      H1592   1.084       .  S
C1586      C1587   1.410       .  A
C1587      C1588   1.408       .  A
C1587      C1594   1.506       .  S
C1588      C1589   1.409       .  A
C1588      H1593   1.074       .  S
C1589      C1590   1.408       .  A
C1590      C1591   1.507       .  S
C1591      H1595   1.111       .  S
C1591      H1596   1.110       .  S
C1591      H1597   1.109       .  S
C1594      H1598   1.110       .  S
C1594      H1599   1.110       .  S
C1594      H1600   1.110       .  S
C1601      C1602   1.411       .  A
C1601      C1606   1.396       .  A
C1601      H1608   1.084       .  S
C1602      C1603   1.414       .  A
C1603      C1604   1.409       .  A
C1603      C1610   1.505       .  S
C1604      C1605   1.410       .  A
C1604      H1609   1.083       .  S
C1605      C1606   1.401       .  A
C1606      C1607   1.505       .  S
C1607      H1611   1.111       .  S
C1607      H1612   1.109       .  S
C1607      H1613   1.110       .  S
C1610      H1614   1.110       .  S
C1610      H1615   1.110       .  S
C1610      H1616   1.111       .  S
C1617      C1618   1.412       .  A
C1617      C1622   1.403       .  A
C1617      H1624   1.084       .  S
C1618      C1619   1.410       .  A
C1619      C1620   1.407       .  A
C1619      C1626   1.505       .  S
C1620      C1621   1.410       .  A
C1620      H1625   1.080       .  S
C1621      C1622   1.403       .  A
C1622      C1623   1.507       .  S
C1623      H1627   1.111       .  S
C1623      H1628   1.110       .  S
C1623      H1629   1.110       .  S
C1626      H1630   1.110       .  S
C1626      H1631   1.110       .  S
C1626      H1632   1.110       .  S
C1633      C1634   1.415       .  A
C1633      C1638   1.402       .  A
C1633      H1640   1.084       .  S
C1634      C1635   1.409       .  A
C1635      C1636   1.412       .  A
C1635      C1642   1.505       .  S
C1636      C1637   1.415       .  A
C1636      H1641   1.083       .  S
C1637      C1638   1.405       .  A
C1638      C1639   1.508       .  S
C1639      H1643   1.111       .  S
C1639      H1644   1.109       .  S
C1639      H1645   1.110       .  S
C1642      H1646   1.110       .  S
C1642      H1647   1.110       .  S
C1642      H1648   1.111       .  S
C1649      C1650   1.400       .  A
C1649      C1654   1.412       .  A
C1649      H1656   1.084       .  S
C1650      C1651   1.426       .  A
C1651      C1652   1.408       .  A
C1651      C1658   1.511       .  S
C1652      C1653   1.399       .  A
C1652      H1657   1.084       .  S
C1653      C1654   1.420       .  A
C1654      C1655   1.501       .  S
C1655      H1659   1.111       .  S
C1655      H1660   1.101       .  S
C1655      H1661   1.110       .  S
C1658      H1662   1.110       .  S
C1658      H1663   1.108       .  S
C1658      H1664   1.111       .  S
C1665      C1666   1.402       .  A
C1665      C1670   1.413       .  A
C1665      H1672   1.084       .  S
C1666      C1667   1.426       .  A
C1667      C1668   1.408       .  A
C1667      C1674   1.511       .  S
C1668      C1669   1.401       .  A
C1668      H1673   1.084       .  S
C1669      C1670   1.421       .  A
C1670      C1671   1.500       .  S
C1671      H1675   1.111       .  S
C1671      H1676   1.109       .  S
C1671      H1677   1.107       .  S
C1674      H1678   1.110       .  S
C1674      H1679   1.108       .  S
C1674      H1680   1.111       .  S
C1681      C1682   1.402       .  A
C1681      C1686   1.411       .  A
C1681      H1688   1.084       .  S
C1682      C1683   1.414       .  A
C1683      C1684   1.397       .  A
C1683      C1690   1.490       .  S
C1684      C1685   1.396       .  A
C1684      H1689   1.085       .  S
C1685      C1686   1.427       .  A
C1686      C1687   1.510       .  S
C1687      H1691   1.111       .  S
C1687      H1692   1.107       .  S
C1687      H1693   1.111       .  S
C1690      H1694   1.106       .  S
C1690      H1695   1.099       .  S
C1690      H1696   1.111       .  S
C1697      C1698   1.402       .  A
C1697      C1702   1.402       .  A
C1697      H1704   1.078       .  S
C1698      C1699   1.407       .  A
C1699      C1700   1.406       .  A
C1699      C1706   1.507       .  S
C1700      C1701   1.407       .  A
C1700      H1705   1.084       .  S
C1701      C1702   1.409       .  A
C1702      C1703   1.507       .  S
C1703      H1707   1.110       .  S
C1703      H1708   1.110       .  S
C1703      H1709   1.110       .  S
C1706      H1710   1.107       .  S
C1706      H1711   1.109       .  S
C1706      H1712   1.111       .  S
C1713      C1714   1.403       .  A
C1713      C1718   1.410       .  A
C1713      H1720   1.082       .  S
C1714      C1715   1.406       .  A
C1715      C1716   1.405       .  A
C1715      C1722   1.504       .  S
C1716      C1717   1.413       .  A
C1716      H1721   1.084       .  S
C1717      C1718   1.422       .  A
C1718      C1719   1.506       .  S
C1719      H1723   1.108       .  S
C1719      H1724   1.110       .  S
C1719      H1725   1.110       .  S
C1722      H1726   1.110       .  S
C1722      H1727   1.110       .  S
C1722      H1728   1.107       .  S
C1729      C1730   1.397       .  A
C1729      C1734   1.407       .  A
C1729      H1736   1.085       .  S
C1730      C1731   1.406       .  A
C1731      C1732   1.397       .  A
C1731      C1738   1.497       .  S
C1732      C1733   1.404       .  A
C1732      H1737   1.084       .  S
C1733      C1734   1.425       .  A
C1734      C1735   1.507       .  S
C1735      H1739   1.111       .  S
C1735      H1740   1.111       .  S
C1735      H1741   1.108       .  S
C1738      H1742   1.108       .  S
C1738      H1743   1.107       .  S
C1738      H1744   1.111       .  S
C1745      C1746   1.404       .  A
C1745      C1750   1.404       .  A
C1745      H1752   1.076       .  S
C1746      C1747   1.402       .  A
C1747      C1748   1.406       .  A
C1747      C1754   1.505       .  S
C1748      C1749   1.410       .  A
C1748      H1753   1.084       .  S
C1749      C1750   1.412       .  A
C1750      C1751   1.507       .  S
C1751      H1755   1.107       .  S
C1751      H1756   1.110       .  S
C1751      H1757   1.109       .  S
C1754      H1758   1.106       .  S
C1754      H1759   1.110       .  S
C1754      H1760   1.111       .  S
C1761      C1762   1.401       .  A
C1761      C1766   1.410       .  A
C1761      H1768   1.084       .  S
C1762      C1763   1.417       .  A
C1763      C1764   1.406       .  A
C1763      C1770   1.494       .  S
C1764      C1765   1.396       .  A
C1764      H1769   1.085       .  S
C1765      C1766   1.423       .  A
C1766      C1767   1.509       .  S
C1767      H1771   1.111       .  S
C1767      H1772   1.108       .  S
C1767      H1773   1.110       .  S
C1770      H1774   1.105       .  S
C1770      H1775   1.111       .  S
C1770      H1776   1.108       .  S
C1777      C1778   1.407   1_556  A
C1777      C1782   1.408       .  A
C1777      H1784   1.083       .  S
C1778      C1779   1.406       .  A
C1779      C1780   1.406       .  A
C1779      C1786   1.507       .  S
C1780      C1781   1.413       .  A
C1780      H1785   1.084       .  S
C1781      C1782   1.416   1_554  A
C1782      C1783   1.507       .  S
C1783      H1787   1.111       .  S
C1783      H1788   1.109       .  S
C1783      H1789   1.110       .  S
C1786      H1790   1.110       .  S
C1786      H1791   1.111       .  S
C1786      H1792   1.111       .  S
C1793      C1794   1.407       .  A
C1793      C1798   1.400       .  A
C1793      H1800   1.077       .  S
C1794      C1795   1.408       .  A
C1795      C1796   1.401       .  A
C1795      C1802   1.507       .  S
C1796      C1797   1.408       .  A
C1796      H1801   1.085       .  S
C1797      C1798   1.404       .  A
C1798      C1799   1.506       .  S
C1799      H1803   1.111       .  S
C1799      H1804   1.110       .  S
C1799      H1805   1.110       .  S
C1802      H1806   1.109       .  S
C1802      H1807   1.109       .  S
C1802      H1808   1.111       .  S
C1809      C1810   1.411       .  A
C1809      C1814   1.413       .  A
C1809      H1816   1.082       .  S
C1810      C1811   1.410       .  A
C1811      C1812   1.412   1_554  A
C1811      C1818   1.507       .  S
C1812      C1813   1.415       .  A
C1812      H1817   1.084       .  S
C1813      C1814   1.417   1_556  A
C1814      C1815   1.507       .  S
C1815      H1819   1.111       .  S
C1815      H1820   1.110       .  S
C1815      H1821   1.110       .  S
C1818      H1822   1.110   1_554  S
C1818      H1823   1.110       .  S
C1818      H1824   1.111   1_554  S
C1825      C1826   1.420   1_554  A
C1825      C1830   1.403       .  A
C1825      H1832   1.083       .  S
C1826      C1827   1.406       .  A
C1827      C1828   1.406       .  A
C1827      C1834   1.506       .  S
C1828      C1829   1.418       .  A
C1828      H1833   1.077       .  S
C1829      C1830   1.409   1_556  A
C1830      C1831   1.510       .  S
C1831      H1835   1.111       .  S
C1831      H1836   1.109       .  S
C1831      H1837   1.108       .  S
C1834      H1838   1.110       .  S
C1834      H1839   1.110   1_455  S
C1834      H1840   1.111       .  S
C1841      C1842   1.403       .  A
C1841      C1846   1.411       .  A
C1841      H1848   1.084   1_455  S
C1842      C1843   1.420       .  A
C1843      C1844   1.405       .  A
C1843      C1850   1.511       .  S
C1844      C1845   1.403       .  A
C1844      H1849   1.084       .  S
C1845      C1846   1.415       .  A
C1846      C1847   1.502   1_455  S
C1847      H1851   1.111       .  S
C1847      H1852   1.103       .  S
C1847      H1853   1.110       .  S
C1850      H1854   1.111       .  S
C1850      H1855   1.109       .  S
C1850      H1856   1.111       .  S
C1857      C1858   1.411       .  A
C1857      C1862   1.405       .  A
C1857      H1864   1.077       .  S
C1858      C1859   1.414       .  A
C1859      C1860   1.405       .  A
C1859      C1866   1.507       .  S
C1860      C1861   1.409   1_545  A
C1860      H1865   1.085       .  S
C1861      C1862   1.407   1_565  A
C1862      C1863   1.507   1_545  S
C1863      H1867   1.110   1_565  S
C1863      H1868   1.110   1_565  S
C1863      H1869   1.110       .  S
C1866      H1870   1.104       .  S
C1866      H1871   1.110       .  S
C1866      H1872   1.110       .  S
C1873      C1874   1.413   1_565  A
C1873      C1878   1.412       .  A
C1873      H1880   1.084       .  S
C1874      C1875   1.418       .  A
C1875      C1876   1.409       .  A
C1875      C1882   1.508       .  S
C1876      C1877   1.411   1_545  A
C1876      H1881   1.085       .  S
C1877      C1878   1.414       .  A
C1878      C1879   1.506       .  S
C1879      H1883   1.110       .  S
C1879      H1884   1.110       .  S
C1879      H1885   1.106       .  S
C1882      H1886   1.101       .  S
C1882      H1887   1.111       .  S
C1882      H1888   1.111       .  S
C1889      C1890   1.393       .  A
C1889      C1894   1.400       .  A
C1889      H1896   1.085       .  S
C1890      C1891   1.405       .  A
C1891      C1892   1.400       .  A
C1891      C1898   1.501       .  S
C1892      C1893   1.406       .  A
C1892      H1897   1.083       .  S
C1893      C1894   1.427       .  A
C1894      C1895   1.508       .  S
C1895      H1899   1.111       .  S
C1895      H1900   1.107       .  S
C1895      H1901   1.108       .  S
C1898      H1902   1.110       .  S
C1898      H1903   1.104       .  S
C1898      H1904   1.111       .  S
C1905      C1906   1.398       .  A
C1905      C1910   1.401       .  A
C1905      H1912   1.077       .  S
C1906      C1907   1.409       .  A
C1907      C1908   1.406       .  A
C1907      C1914   1.504       .  S
C1908      C1909   1.411       .  A
C1908      H1913   1.084       .  S
C1909      C1910   1.419       .  A
C1910      C1911   1.509   1_556  S
C1911      H1915   1.106       .  S
C1911      H1916   1.103       .  S
C1911      H1917   1.111       .  S
C1914      H1918   1.110       .  S
C1914      H1919   1.110       .  S
C1914      H1920   1.110       .  S
C1921      C1922   1.393       .  A
C1921      C1926   1.398       .  A
C1921      H1928   1.085       .  S
C1922      C1923   1.405       .  A
C1923      C1924   1.400       .  A
C1923      C1930   1.506       .  S
C1924      C1925   1.407       .  A
C1924      H1929   1.084       .  S
C1925      C1926   1.422       .  A
C1926      C1927   1.511       .  S
C1927      H1931   1.111       .  S
C1927      H1932   1.110       .  S
C1927      H1933   1.109       .  S
C1930      H1934   1.110       .  S
C1930      H1935   1.109   1_554  S
C1930      H1936   1.106       .  S
C1937      C1938   1.413       .  A
C1937      C1942   1.410       .  A
C1937      H1944   1.084       .  S
C1938      C1939   1.410       .  A
C1939      C1940   1.401       .  A
C1939      C1946   1.508       .  S
C1940      C1941   1.412       .  A
C1940      H1945   1.084       .  S
C1941      C1942   1.410       .  A
C1942      C1943   1.505       .  S
C1943      H1947   1.111       .  S
C1943      H1948   1.111       .  S
C1943      H1949   1.110   1_655  S
C1946      H1950   1.110       .  S
C1946      H1951   1.109       .  S
C1946      H1952   1.111       .  S
C1953      C1954   1.403       .  A
C1953      C1958   1.407       .  A
C1953      H1960   1.084       .  S
C1954      C1955   1.425   1_455  A
C1955      C1956   1.400       .  A
C1955      C1962   1.502       .  S
C1956      C1957   1.392       .  A
C1956      H1961   1.085       .  S
C1957      C1958   1.413   1_655  A
C1958      C1959   1.501       .  S
C1959      H1963   1.111       .  S
C1959      H1964   1.100       .  S
C1959      H1965   1.110       .  S
C1962      H1966   1.107       .  S
C1962      H1967   1.110       .  S
C1962      H1968   1.111       .  S
C1969      C1970   1.411       .  A
C1969      C1974   1.406       .  A
C1969      H1976   1.081       .  S
C1970      C1971   1.408       .  A
C1971      C1972   1.406       .  A
C1971      C1978   1.507       .  S
C1972      C1973   1.411       .  A
C1972      H1977   1.084       .  S
C1973      C1974   1.408       .  A
C1974      C1975   1.505       .  S
C1975      H1979   1.108       .  S
C1975      H1980   1.110       .  S
C1975      H1981   1.110       .  S
C1978      H1982   1.110       .  S
C1978      H1983   1.109       .  S
C1978      H1984   1.111       .  S
C1985      C1986   1.421       .  A
C1985      C1990   1.420       .  A
C1985      H1992   1.084       .  S
C1986      C1987   1.406       .  A
C1987      C1988   1.400       .  A
C1987      C1994   1.508   1_556  S
C1988      C1989   1.412       .  A
C1988      H1993   1.068       .  S
C1989      C1990   1.412       .  A
C1990      C1991   1.504       .  S
C1991      H1995   1.111       .  S
C1991      H1996   1.109       .  S
C1991      H1997   1.110       .  S
C1994      H1998   1.110       .  S
C1994      H1999   1.107       .  S
C1994      H2000   1.107       .  S
C2001      C2002   1.402       .  A
C2001      C2006   1.407       .  A
C2001      H2008   1.084       .  S
C2002      C2003   1.421       .  A
C2003      C2004   1.405       .  A
C2003      C2010   1.501       .  S
C2004      C2005   1.398       .  A
C2004      H2009   1.084       .  S
C2005      C2006   1.414       .  A
C2006      C2007   1.501       .  S
C2007      H2011   1.110       .  S
C2007      H2012   1.109       .  S
C2007      H2013   1.110       .  S
C2010      H2014   1.108       .  S
C2010      H2015   1.110       .  S
C2010      H2016   1.111       .  S
C2017      C2018   1.405       .  A
C2017      C2022   1.400       .  A
C2017      H2024   1.084       .  S
C2018      C2019   1.426       .  A
C2019      C2020   1.402       .  A
C2019      C2026   1.509       .  S
C2020      C2021   1.394       .  A
C2020      H2025   1.084       .  S
C2021      C2022   1.406       .  A
C2022      C2023   1.500       .  S
C2023      H2027   1.111       .  S
C2023      H2028   1.102   1_655  S
C2023      H2029   1.110       .  S
C2026      H2030   1.109   1_554  S
C2026      H2031   1.109       .  S
C2026      H2032   1.111       .  S
C2033      C2034   1.398       .  A
C2033      C2038   1.411       .  A
C2033      H2040   1.084       .  S
C2034      C2035   1.436       .  A
C2035      C2036   1.410       .  A
C2035      C2042   1.506       .  S
C2036      C2037   1.394       .  A
C2036      H2041   1.084       .  S
C2037      C2038   1.423       .  A
C2038      C2039   1.492       .  S
C2039      H2043   1.111       .  S
C2039      H2044   1.099       .  S
C2039      H2045   1.109       .  S
C2042      H2046   1.110       .  S
C2042      H2047   1.110       .  S
C2042      H2048   1.111       .  S
C2049      C2050   1.396       .  A
C2049      C2054   1.408       .  A
C2049      H2056   1.083       .  S
C2050      C2051   1.424       .  A
C2051      C2052   1.411       .  A
C2051      C2058   1.500       .  S
C2052      C2053   1.402       .  A
C2052      H2057   1.084       .  S
C2053      C2054   1.436       .  A
C2054      C2055   1.507       .  S
C2055      H2059   1.111       .  S
C2055      H2060   1.109       .  S
C2055      H2061   1.110   1_554  S
C2058      H2062   1.103       .  S
C2058      H2063   1.109       .  S
C2058      H2064   1.111       .  S
C2065      C2066   1.405       .  A
C2065      C2070   1.400       .  A
C2065      H2072   1.084       .  S
C2066      C2067   1.413   1_554  A
C2067      C2068   1.404   1_556  A
C2067      C2074   1.503       .  S
C2068      C2069   1.400       .  A
C2068      H2073   1.083   1_554  S
C2069      C2070   1.402       .  A
C2070      C2071   1.506       .  S
C2071      H2075   1.111       .  S
C2071      H2076   1.110       .  S
C2071      H2077   1.111       .  S
C2074      H2078   1.109       .  S
C2074      H2079   1.110       .  S
C2074      H2080   1.110       .  S
C2081      C2082   1.420       .  A
C2081      C2086   1.397       .  A
C2081      H2088   1.068       .  S
C2082      C2083   1.415       .  A
C2083      C2084   1.413       .  A
C2083      C2090   1.506       .  S
C2084      C2085   1.414       .  A
C2084      H2089   1.085       .  S
C2085      C2086   1.397       .  A
C2086      C2087   1.509       .  S
C2087      H2091   1.110       .  S
C2087      H2092   1.110       .  S
C2087      H2093   1.111       .  S
C2090      H2094   1.110       .  S
C2090      H2095   1.108       .  S
C2090      H2096   1.111       .  S
C2097      C2098   1.404       .  A
C2097      C2102   1.410       .  A
C2097      H2104   1.084       .  S
C2098      C2099   1.410       .  A
C2099      C2100   1.411       .  A
C2099      C2106   1.501       .  S
C2100      C2101   1.408       .  A
C2100      H2105   1.084       .  S
C2101      C2102   1.414       .  A
C2102      C2103   1.507       .  S
C2103      H2107   1.110       .  S
C2103      H2108   1.108       .  S
C2103      H2109   1.109       .  S
C2106      H2110   1.110       .  S
C2106      H2111   1.111       .  S
C2106      H2112   1.099       .  S
C2113      C2114   1.418       .  A
C2113      C2118   1.406       .  A
C2113      H2120   1.084       .  S
C2114      C2115   1.413       .  A
C2115      C2116   1.406       .  A
C2115      C2122   1.507       .  S
C2116      C2117   1.411       .  A
C2116      H2121   1.079       .  S
C2117      C2118   1.406       .  A
C2118      C2119   1.506       .  S
C2119      H2123   1.111       .  S
C2119      H2124   1.105       .  S
C2119      H2125   1.106       .  S
C2122      H2126   1.110       .  S
C2122      H2127   1.111       .  S
C2122      H2128   1.111       .  S
C2129      C2130   1.408       .  A
C2129      C2134   1.406       .  A
C2129      H2136   1.084       .  S
C2130      C2131   1.409       .  A
C2131      C2132   1.405       .  A
C2131      C2138   1.507       .  S
C2132      C2133   1.408       .  A
C2132      H2137   1.080       .  S
C2133      C2134   1.411       .  A
C2134      C2135   1.507       .  S
C2135      H2139   1.111       .  S
C2135      H2140   1.110       .  S
C2135      H2141   1.110       .  S
C2138      H2142   1.109       .  S
C2138      H2143   1.110       .  S
C2138      H2144   1.106       .  S
C2145      C2146   1.406       .  A
C2145      C2150   1.405       .  A
C2145      H2152   1.084       .  S
C2146      C2147   1.420       .  A
C2147      C2148   1.407       .  A
C2147      C2154   1.504       .  S
C2148      C2149   1.397       .  A
C2148      H2153   1.082       .  S
C2149      C2150   1.413       .  A
C2150      C2151   1.503       .  S
C2151      H2155   1.110       .  S
C2151      H2156   1.110       .  S
C2151      H2157   1.111       .  S
C2154      H2158   1.102       .  S
C2154      H2159   1.110       .  S
C2154      H2160   1.111       .  S
C2161      C2162   1.409       .  A
C2161      C2166   1.406       .  A
C2161      H2168   1.084       .  S
C2162      C2163   1.427       .  A
C2163      C2164   1.404       .  A
C2163      C2170   1.510       .  S
C2164      C2165   1.396       .  A
C2164      H2169   1.081       .  S
C2165      C2166   1.410       .  A
C2166      C2167   1.501       .  S
C2167      H2171   1.105       .  S
C2167      H2172   1.110       .  S
C2167      H2173   1.108       .  S
C2170      H2174   1.109       .  S
C2170      H2175   1.109       .  S
C2170      H2176   1.109       .  S
C2177      C2178   1.399       .  A
C2177      C2182   1.405       .  A
C2177      H2184   1.085       .  S
C2178      C2179   1.419       .  A
C2179      C2180   1.414       .  A
C2179      C2186   1.504   1_545  S
C2180      C2181   1.405       .  A
C2180      H2185   1.084       .  S
C2181      C2182   1.426       .  A
C2182      C2183   1.508       .  S
C2183      H2187   1.108       .  S
C2183      H2188   1.111       .  S
C2183      H2189   1.110       .  S
C2186      H2190   1.108       .  S
C2186      H2191   1.108       .  S
C2186      H2192   1.110   1_565  S
C2193      C2194   1.404       .  A
C2193      C2198   1.404       .  A
C2193      H2200   1.080       .  S
C2194      C2195   1.406       .  A
C2195      C2196   1.404       .  A
C2195      C2202   1.507       .  S
C2196      C2197   1.409       .  A
C2196      H2201   1.084       .  S
C2197      C2198   1.408       .  A
C2198      C2199   1.503       .  S
C2199      H2203   1.104       .  S
C2199      H2204   1.109       .  S
C2199      H2205   1.110       .  S
C2202      H2206   1.110       .  S
C2202      H2207   1.110       .  S
C2202      H2208   1.110       .  S
C2209      C2210   1.399       .  A
C2209      C2214   1.400       .  A
C2209      H2216   1.084       .  S
C2210      C2211   1.429       .  A
C2211      C2212   1.404       .  A
C2211      C2218   1.511       .  S
C2212      C2213   1.397       .  A
C2212      H2217   1.084       .  S
C2213      C2214   1.416       .  A
C2214      C2215   1.500       .  S
C2215      H2219   1.110       .  S
C2215      H2220   1.110       .  S
C2215      H2221   1.104       .  S
C2218      H2222   1.111       .  S
C2218      H2223   1.110       .  S
C2218      H2224   1.111       .  S
C2225      C2226   1.397       .  A
C2225      C2230   1.406       .  A
C2225      H2232   1.084       .  S
C2226      C2227   1.412       .  A
C2227      C2228   1.402       .  A
C2227      C2234   1.498       .  S
C2228      C2229   1.402       .  A
C2228      H2233   1.084       .  S
C2229      C2230   1.424       .  A
C2230      C2231   1.506       .  S
C2231      H2235   1.111       .  S
C2231      H2236   1.107       .  S
C2231      H2237   1.110       .  S
C2234      H2238   1.107       .  S
C2234      H2239   1.109       .  S
C2234      H2240   1.110       .  S
C2241      C2242   1.409       .  A
C2241      C2246   1.405   1_445  A
C2241      H2248   1.081   1_455  S
C2242      C2243   1.410       .  A
C2243      C2244   1.400       .  A
C2243      C2250   1.508       .  S
C2244      C2245   1.411   1_545  A
C2244      H2249   1.084       .  S
C2245      C2246   1.413   1_455  A
C2246      C2247   1.507       .  S
C2247      H2251   1.111       .  S
C2247      H2252   1.110       .  S
C2247      H2253   1.110       .  S
C2250      H2254   1.109       .  S
C2250      H2255   1.110       .  S
C2250      H2256   1.111       .  S
C2257      C2258   1.397       .  A
C2257      C2262   1.407       .  A
C2257      H2264   1.085       .  S
C2258      C2259   1.418   1_545  A
C2259      C2260   1.412       .  A
C2259      C2266   1.505       .  S
C2260      C2261   1.405   1_565  A
C2260      H2265   1.084       .  S
C2261      C2262   1.430       .  A
C2262      C2263   1.511       .  S
C2263      H2267   1.111       .  S
C2263      H2268   1.111       .  S
C2263      H2269   1.109       .  S
C2266      H2270   1.106   1_655  S
C2266      H2271   1.110       .  S
C2266      H2272   1.111       .  S
C2273      C2274   1.416       .  A
C2273      C2278   1.401       .  A
C2273      H2280   1.083       .  S
C2274      C2275   1.411       .  A
C2275      C2276   1.408       .  A
C2275      C2282   1.506       .  S
C2276      C2277   1.411       .  A
C2276      H2281   1.082       .  S
C2277      C2278   1.402       .  A
C2278      C2279   1.508       .  S
C2279      H2283   1.111       .  S
C2279      H2284   1.110       .  S
C2279      H2285   1.110       .  S
C2282      H2286   1.111       .  S
C2282      H2287   1.109       .  S
C2282      H2288   1.111       .  S
C2289      C2290   1.396       .  A
C2289      C2294   1.407       .  A
C2289      H2296   1.085       .  S
C2290      C2291   1.410       .  A
C2291      C2292   1.402       .  A
C2291      C2298   1.497       .  S
C2292      C2293   1.403       .  A
C2292      H2297   1.084       .  S
C2293      C2294   1.431       .  A
C2294      C2295   1.510       .  S
C2295      H2299   1.111       .  S
C2295      H2300   1.109       .  S
C2295      H2301   1.108       .  S
C2298      H2302   1.106       .  S
C2298      H2303   1.106       .  S
C2298      H2304   1.111       .  S
C2305      C2306   1.394       .  A
C2305      C2310   1.405       .  A
C2305      H2312   1.084       .  S
C2306      C2307   1.417       .  A
C2307      C2308   1.405       .  A
C2307      C2314   1.494       .  S
C2308      C2309   1.401       .  A
C2308      H2313   1.084       .  S
C2309      C2310   1.433       .  A
C2310      C2311   1.503       .  S
C2311      H2315   1.111       .  S
C2311      H2316   1.105       .  S
C2311      H2317   1.109       .  S
C2314      H2318   1.109       .  S
C2314      H2319   1.105       .  S
C2314      H2320   1.110       .  S
C2321      C2322   1.406       .  A
C2321      C2326   1.408       .  A
C2321      H2328   1.081       .  S
C2322      C2323   1.405       .  A
C2323      C2324   1.409       .  A
C2323      C2330   1.506       .  S
C2324      C2325   1.411       .  A
C2324      H2329   1.084       .  S
C2325      C2326   1.415       .  A
C2326      C2327   1.505       .  S
C2327      H2331   1.107       .  S
C2327      H2332   1.109       .  S
C2327      H2333   1.110       .  S
C2330      H2334   1.110       .  S
C2330      H2335   1.108       .  S
C2330      H2336   1.110       .  S
C2337      C2338   1.412       .  A
C2337      C2342   1.404       .  A
C2337      H2344   1.082       .  S
C2338      C2339   1.411   1_556  A
C2339      C2340   1.409       .  A
C2339      C2346   1.506       .  S
C2340      C2341   1.411   1_554  A
C2340      H2345   1.084       .  S
C2341      C2342   1.406       .  A
C2342      C2343   1.506       .  S
C2343      H2347   1.111       .  S
C2343      H2348   1.110   1_545  S
C2343      H2349   1.111       .  S
C2346      H2350   1.109       .  S
C2346      H2351   1.110       .  S
C2346      H2352   1.111       .  S
C2353      C2354   1.403       .  A
C2353      C2358   1.409       .  A
C2353      H2360   1.084       .  S
C2354      C2355   1.419   1_545  A
C2355      C2356   1.408       .  A
C2355      C2362   1.504       .  S
C2356      C2357   1.401       .  A
C2356      H2361   1.084       .  S
C2357      C2358   1.419   1_565  A
C2358      C2359   1.510       .  S
C2359      H2363   1.111       .  S
C2359      H2364   1.109       .  S
C2359      H2365   1.111       .  S
C2362      H2366   1.108       .  S
C2362      H2367   1.110       .  S
C2362      H2368   1.110       .  S
C2369      C2370   1.399       .  A
C2369      C2374   1.403       .  A
C2369      H2376   1.084       .  S
C2370      C2371   1.414       .  A
C2371      C2372   1.399       .  A
C2371      C2378   1.499       .  S
C2372      C2373   1.395       .  A
C2372      H2377   1.084       .  S
C2373      C2374   1.412       .  A
C2374      C2375   1.500       .  S
C2375      H2379   1.111       .  S
C2375      H2380   1.110       .  S
C2375      H2381   1.104       .  S
C2378      H2382   1.108       .  S
C2378      H2383   1.107       .  S
C2378      H2384   1.110       .  S
