geometry optimzed in LAMMPS
_audit_creation_date              2020-12-01 
_audit_creation_method            'lammps2cif' 
_symmetry_space_group_name_H-M    'P1' 
_symmetry_Int_Tables_number       1 
_symmetry_cell_setting            triclinic 
loop_ 
_symmetry_equiv_pos_as_xyz 
  x,y,z 
_cell_length_a                    41.29433721 
_cell_length_b                    41.46210688218013 
_cell_length_c                    41.4865720891286 
_cell_angle_alpha                 90.02823478064114 
_cell_angle_beta                  90.04400896711917 
_cell_angle_gamma                 89.72000168850366 
loop_ 
_atom_site_label 
_atom_site_type_symbol 
_atom_site_fract_x 
_atom_site_fract_y 
_atom_site_fract_z 
_atom_site_charge 
N1          N  0.99562853  0.22981403  0.55264698    -0.36600
N2          N  0.05009203  0.24480011  0.51112122    -0.57200
N3          N  0.00559302  0.25502592  0.45798733    -0.36600
N4          N  0.95119975  0.23670160  0.49962769    -0.57200
C5          C  0.02031819  0.21919931  0.57127332     0.27000
C6          C  0.96790047  0.21974820  0.56651025     0.27000
C7          C  0.03447933  0.25622237  0.44248416     0.27000
C8          C  0.98251385  0.24847144  0.43566950     0.27000
C9          C  0.06552951  0.24317363  0.53982565     0.35600
C10         C  0.07045280  0.25967117  0.49048388     0.35600
C11         C  0.92940194  0.23693116  0.52399668     0.35600
C12         C  0.93483988  0.24471402  0.47256153     0.35600
C13         C  0.00808463  0.20189812  0.59713948    -0.21900
C14         C  0.97491229  0.20253674  0.59428851    -0.21900
C15         C  0.02957586  0.25084690  0.40983653    -0.21900
C16         C  0.99684880  0.24608611  0.40554009    -0.21900
C17         C  0.09594654  0.25692922  0.53742203    -0.23000
C18         C  0.09900441  0.26754638  0.50619407    -0.23000
C19         C  0.89892639  0.24465237  0.51231018    -0.23000
C20         C  0.90229431  0.24922452  0.47961927    -0.22900
C21         C  0.05308694  0.22811232  0.56774506    -0.18300
C22         C  0.93648029  0.22825299  0.55622187    -0.18300
C23         C  0.94864245  0.24671106  0.44138914    -0.18300
C24         C  0.06500049  0.26282280  0.45692828    -0.18300
H25         H  0.02158811  0.19105456  0.61674003     0.14600
H26         H  0.95786696  0.19200443  0.61101182     0.14600
H27         H  0.04767790  0.25048500  0.39098881     0.14600
H28         H  0.98493490  0.24157321  0.38274489     0.14600
H29         H  0.11409258  0.25893337  0.55614908     0.12900
H30         H  0.12010695  0.27909584  0.49602654     0.12900
H31         H  0.87654389  0.24615616  0.52579630     0.12900
H32         H  0.88303022  0.25537750  0.46298455     0.12900
H33         H  0.99716721  0.24693525  0.53448547     0.26200
H34         H  0.00150157  0.26153582  0.48181676     0.26100
O35         O  0.24193849  0.26744194  0.19790521    -0.88400
C36         C  0.32319019  0.25925088  0.25425062     0.87700
Mg37       Mg  0.20212555  0.29982516  0.20845294     1.58100
O38         O  0.26858074  0.19406253  0.25651499    -0.88100
O39         O  0.25375413  0.21769872  0.18494678    -0.75400
C40         C  0.16714044  0.27110449  0.36127879     0.92700
O41         O  0.27572142  0.32293219  0.23997088    -0.75200
O42         O  0.16727762  0.29487236  0.34176886    -0.82700
Mg43       Mg  0.28938619  0.28858205  0.19853514     1.58000
C44         C  0.24127206  0.15811979  0.34657696     0.92700
O45         O  0.30725735  0.25941573  0.15478768    -0.81000
H46         H  0.24237919  0.16045401  0.23402092    -0.06300
C47         C  0.25853154  0.26206787  0.32889613     0.87600
O48         O  0.17208125  0.25926364  0.23034020    -0.75500
O49         O  0.30484659  0.25161423  0.23204911    -0.88300
O50         O  0.26615907  0.16297553  0.32916029    -0.81100
C51         C  0.34930596  0.16472198  0.26682931     0.92800
C52         C  0.32873319  0.23760820  0.15118438     0.92600
Mg53       Mg  0.20341278  0.21741940  0.31159194     1.58000
O54         O  0.18322328  0.24549263  0.35522400    -0.81000
O55         O  0.21787258  0.18464520  0.26895245    -0.75200
O56         O  0.34378232  0.17957002  0.24030896    -0.81100
O57         O  0.27344904  0.32703511  0.16266276    -0.82800
O58         O  0.15266753  0.32683513  0.27252714    -0.81100
C59         C  0.24323879  0.17878213  0.25254234     0.87100
O60         O  0.18935224  0.25530688  0.27979215    -0.88300
O61         O  0.25154856  0.23741293  0.31374659    -0.88400
O62         O  0.24282705  0.28819917  0.32513345    -0.75400
Mg63       Mg  0.29876318  0.20294481  0.21487848     1.58000
O64         O  0.33166853  0.16954167  0.29147381    -0.82800
H65         H  0.21626366  0.24285177  0.16529997    -0.06500
O66         O  0.22583464  0.31159766  0.25367166    -0.88100
H67         H  0.25052604  0.34759890  0.27406882    -0.06300
H68         H  0.15236270  0.22911666  0.26333104    -0.06500
C69         C  0.25034813  0.32837604  0.25645322     0.87000
C70         C  0.23639505  0.24292427  0.18197518     0.87600
C71         C  0.17022749  0.24743436  0.25839261     0.87700
H72         H  0.27897006  0.26158780  0.34519403    -0.06500
O73         O  0.32130960  0.24593481  0.28172492    -0.75500
Mg74       Mg  0.19765327  0.30386761  0.29654135     1.58000
H75         H  0.34073314  0.27813439  0.25042185    -0.06500
C76         C  0.24848085  0.34508746  0.16109124     0.92700
O77         O  0.16067485  0.33405136  0.21993643    -0.82800
C78         C  0.14477521  0.33957823  0.24561729     0.92700
O79         O  0.33147718  0.21476182  0.17164144    -0.82700
Mg80       Mg  0.29077950  0.20460467  0.30265076     1.58200
O81         O  0.22485927  0.34113753  0.18022895    -0.81100
O82         O  0.21697573  0.17698308  0.34571678    -0.82800
O83         O  0.76319149  0.24888131  0.69575029    -0.88400
C84         C  0.75452350  0.17441944  0.76015963     0.87700
Mg85       Mg  0.79673879  0.28773943  0.70255336     1.58100
O86         O  0.68973211  0.23016988  0.76200533    -0.88100
O87         O  0.71122316  0.24091872  0.68918471    -0.75400
C88         C  0.77059042  0.33675790  0.85161632     0.92700
O89         O  0.81910069  0.21717535  0.73998190    -0.75200
O90         O  0.79313786  0.33497049  0.83084299    -0.82700
Mg91       Mg  0.78301644  0.20098614  0.70099351     1.58000
C92         C  0.65748262  0.26460305  0.85145952     0.92700
O93         O  0.75195416  0.17913057  0.66067502    -0.81000
H94         H  0.65321982  0.25285799  0.73976828    -0.06300
C95         C  0.76032624  0.24364686  0.82938401     0.87600
O96         O  0.75654326  0.32039031  0.72283495    -0.75500
O97         O  0.74649199  0.19125258  0.73691504    -0.88300
O98         O  0.66095027  0.23782126  0.83654717    -0.81100
C99         C  0.66228943  0.14979321  0.77710428     0.92800
C100        C  0.72576454  0.16313211  0.65835498     0.92600
Mg101      Mg  0.71504945  0.29757524  0.80878557     1.58000
O102        O  0.74523034  0.31954299  0.84935936    -0.81000
O103        O  0.67928889  0.28125586  0.76988476    -0.75200
O104        O  0.67619939  0.15529892  0.75019655    -0.81100
O105        O  0.82157974  0.21111839  0.66291153    -0.82800
O106        O  0.82261005  0.34287373  0.76057783    -0.81100
C107        C  0.67298570  0.25436098  0.75679909     0.87100
O108        O  0.75191272  0.30708025  0.77348814    -0.88300
O109        O  0.73465433  0.24967573  0.81523968    -0.88400
O110        O  0.78640692  0.25829426  0.82258911    -0.75400
Mg111      Mg  0.69692565  0.19851507  0.72196431     1.58000
O112        O  0.66620865  0.16866969  0.80101482    -0.82800
H113        H  0.73676351  0.27444173  0.66438052    -0.06500
O114        O  0.80831239  0.26797468  0.74941876    -0.88100
H115        H  0.84481857  0.24477645  0.77118562    -0.06300
H116        H  0.72568160  0.34264962  0.75384090    -0.06500
C117        C  0.82509289  0.24367543  0.75407616     0.87000
C118        C  0.73733860  0.25537474  0.68214130     0.87600
C119        C  0.74409408  0.32432658  0.75050537     0.87700
H120        H  0.76077161  0.22489078  0.84747564    -0.06500
O121        O  0.74187981  0.17837889  0.78778019    -0.75500
Mg122      Mg  0.80116488  0.30022324  0.78930145     1.58000
H123        H  0.77323912  0.15635713  0.75708125    -0.06500
C124        C  0.84058311  0.23493436  0.65911908     0.92700
O125        O  0.83214725  0.32891827  0.70988687    -0.82800
C126        C  0.83641662  0.34796324  0.73359228     0.92700
O127        O  0.70395391  0.16497059  0.67981141    -0.82700
Mg128      Mg  0.70135717  0.21044435  0.80874768     1.58200
O129        O  0.83717277  0.26051122  0.67577351    -0.81100
O130        O  0.67617473  0.28817782  0.84588695    -0.82800
N131        N  0.50345402  0.04817393  0.26385232    -0.36600
N132        N  0.55224704  0.99784153  0.25765444    -0.57200
N133        N  0.49888665  0.92674079  0.25730785    -0.36600
N134        N  0.45118711  0.00105812  0.26296799    -0.57200
C135        C  0.53020705  0.06620774  0.25758687     0.27000
C136        C  0.47720908  0.06807407  0.26222795     0.27000
C137        C  0.52494485  0.93869069  0.24194039     0.27000
C138        C  0.47293687  0.94013085  0.24265314     0.27000
C139        C  0.57263398  0.02271225  0.26080571     0.35600
C140        C  0.56988400  0.97040253  0.25993193     0.35600
C141        C  0.43289462  0.02725428  0.26927272     0.35600
C142        C  0.43161035  0.97499179  0.26437314     0.35600
C143        C  0.52072931  0.09797271  0.25265626    -0.21900
C144        C  0.48757186  0.09913719  0.25555074    -0.21900
C145        C  0.51545973  0.95760378  0.21602067    -0.21900
C146        C  0.48239958  0.95860684  0.21656271    -0.21900
C147        C  0.60395913  0.01099058  0.26530294    -0.23000
C148        C  0.60208054  0.97764231  0.26534622    -0.23000
C149        C  0.40117385  0.01773086  0.27502916    -0.23000
C150        C  0.40044168  0.98445071  0.27218799    -0.22900
C151        C  0.56316996  0.05544345  0.25751158    -0.18300
C152        C  0.44408724  0.05952707  0.26710730    -0.18300
C153        C  0.44280786  0.94338546  0.25756335    -0.18300
C154        C  0.55592281  0.93966228  0.25552157    -0.18300
H155        H  0.53609945  0.11843671  0.24770795     0.14600
H156        H  0.47278453  0.12061059  0.25302488     0.14600
H157        H  0.53094744  0.97164110  0.20040146     0.14600
H158        H  0.46709488  0.97371383  0.20161617     0.14600
H159        H  0.62590421  0.02489502  0.26793979     0.12900
H160        H  0.62213476  0.96090173  0.26761030     0.12900
H161        H  0.38061157  0.03318318  0.28013829     0.12900
H162        H  0.37937056  0.96923413  0.27458884     0.12900
H163        H  0.50322025  0.02420336  0.27103606     0.26200
H164        H  0.49895076  0.91495625  0.27957695     0.26100
O165        O  0.72213524  0.80976189  0.25823702    -0.88400
C166        C  0.74665057  0.74479940  0.32738433     0.87700
Mg167      Mg  0.68863863  0.79852669  0.22045084     1.58100
O168        O  0.80578944  0.75975752  0.26833891    -0.88100
O169        O  0.77110923  0.82820941  0.26463591    -0.75400
C170        C  0.74020244  0.65968938  0.15782558     0.92700
O171        O  0.67813919  0.75394830  0.28756775    -0.75200
O172        O  0.71404473  0.67584709  0.16121046    -0.82700
Mg173      Mg  0.70598590  0.79857287  0.30601328     1.58000
C174        C  0.85191511  0.67713206  0.23056990     0.92700
O175        O  0.72930925  0.84271775  0.32973883    -0.81000
H176        H  0.83679767  0.78899068  0.24582115    -0.06300
C177        C  0.75082962  0.67924695  0.25192730     0.87600
O178        O  0.73069538  0.78966495  0.18505019    -0.75500
O179        O  0.74910128  0.77046950  0.31247543    -0.88300
O180        O  0.84956359  0.69667058  0.25409163    -0.81100
C181        C  0.84127739  0.74525714  0.34549423     0.92800
C182        C  0.75531764  0.85092840  0.34404791     0.92600
Mg183      Mg  0.78849493  0.71056029  0.19876574     1.58000
O184        O  0.76536598  0.66683895  0.17396687    -0.81000
O185        O  0.81709422  0.75458584  0.21709131    -0.75200
O186        O  0.82181170  0.76904031  0.34310223    -0.81100
O187        O  0.66161630  0.83008739  0.29880056    -0.82800
O188        O  0.67170202  0.74120938  0.16046810    -0.81100
C189        C  0.82071389  0.76856275  0.24411394     0.87100
O190        O  0.74557479  0.73935163  0.19160202    -0.88300
O191        O  0.77181869  0.69961405  0.24655037    -0.88400
O192        O  0.72343182  0.68054876  0.23810102    -0.75400
Mg193      Mg  0.79387032  0.79585613  0.30348888     1.58000
O194        O  0.84091169  0.72220307  0.32523753    -0.82800
H195        H  0.73804467  0.84856305  0.23456171    -0.06500
O196        O  0.68859539  0.74904915  0.23600580    -0.88100
H197        H  0.65887106  0.71899778  0.25917480    -0.06300
H198        H  0.76598922  0.76794814  0.15864181    -0.06500
C199        C  0.67443498  0.73984413  0.26057267     0.87000
C200        C  0.74320415  0.82979798  0.25193375     0.87600
C201        C  0.74805908  0.76544391  0.17743826     0.87700
H202        H  0.75568823  0.66024484  0.26912550    -0.06500
O203        O  0.76366474  0.72024356  0.32015160    -0.75500
Mg204      Mg  0.70065369  0.71366848  0.19960114     1.58000
H205        H  0.72891502  0.74291910  0.34643782    -0.06500
C206        C  0.64102422  0.83042739  0.27610029     0.92700
O207        O  0.65339662  0.78753658  0.18021263    -0.82800
C208        C  0.65270764  0.76556608  0.15889766     0.92700
O209        O  0.78138853  0.83488162  0.34029977    -0.82700
Mg210      Mg  0.80547317  0.71066124  0.28484773     1.58200
O211        O  0.64449352  0.81205257  0.25166344    -0.81100
O212        O  0.83171262  0.67794410  0.20746260    -0.82800
N213        N  0.92763845  0.75233633  0.49254388    -0.36600
N214        N  0.00429627  0.73884467  0.44655673    -0.57200
N215        N  0.04953659  0.73671879  0.49890649    -0.36600
N216        N  0.99751852  0.74972092  0.54575549    -0.57200
C217        C  0.94361052  0.76351149  0.46649756     0.27000
C218        C  0.93874580  0.76947438  0.51788577     0.27000
C219        C  0.07040001  0.73706782  0.47348843     0.27000
C220        C  0.06688469  0.74331062  0.52591654     0.27000
C221        C  0.97820432  0.73800273  0.42698642     0.35600
C222        C  0.03033346  0.73116186  0.42863622     0.35600
C223        C  0.96980697  0.75017762  0.56313497     0.35600
C224        C  0.02182354  0.74396716  0.56653202     0.35600
C225        C  0.96312711  0.78922718  0.47484176    -0.21900
C226        C  0.95986053  0.79317978  0.50740711    -0.21900
C227        C  0.10141907  0.74303794  0.48484551    -0.21900
C228        C  0.09917684  0.74713591  0.51766086    -0.21900
C229        C  0.98737643  0.72928928  0.39613091    -0.23000
C230        C  0.02067360  0.72552161  0.39701509    -0.23000
C231        C  0.97629956  0.74392758  0.59523706    -0.23000
C232        C  0.00949641  0.74043733  0.59749616    -0.22900
C233        C  0.94683084  0.74619015  0.43771795    -0.18300
C234        C  0.93934021  0.75725484  0.54931907    -0.18300
C235        C  0.05496752  0.74444596  0.55813752    -0.18300
C236        C  0.06259230  0.73174702  0.44033632    -0.18300
H237        H  0.98011931  0.80172548  0.45947119     0.14600
H238        H  0.97427443  0.80901897  0.52234442     0.14600
H239        H  0.12357585  0.74434966  0.47102645     0.14600
H240        H  0.11924166  0.75212279  0.53367706     0.14600
H241        H  0.97198795  0.72705237  0.37513168     0.12900
H242        H  0.03598137  0.71972869  0.37664347     0.12900
H243        H  0.95921017  0.74317710  0.61498055     0.12900
H244        H  0.02304742  0.73614371  0.61943324     0.12900
H245        H  0.91470136  0.73076546  0.49376109     0.26200
H246        H  0.02536095  0.72993752  0.49845092     0.26100
O247        O  0.30953850  0.76413054  0.74871039    -0.88400
C248        C  0.24379593  0.74450624  0.81978668     0.87700
Mg249      Mg  0.30035460  0.79790622  0.71046496     1.58100
O250        O  0.25311828  0.68369126  0.76124710    -0.88100
O251        O  0.32364757  0.71366979  0.75547769    -0.75400
C252        C  0.15472632  0.75689636  0.65576296     0.92700
O253        O  0.25670036  0.81247436  0.77966778    -0.75200
O254        O  0.17214110  0.78207731  0.65819737    -0.82700
Mg255      Mg  0.29926538  0.78101762  0.79683132     1.58000
C256        C  0.16912585  0.64275510  0.72235888     0.92700
O257        O  0.34213426  0.75484323  0.82018757    -0.81000
H258        H  0.28092494  0.65180576  0.73783132    -0.06300
C259        C  0.17703191  0.74561433  0.74778368     0.87600
O260        O  0.28607728  0.75717952  0.67586424    -0.75500
O261        O  0.26853621  0.74017926  0.80364430    -0.88300
O262        O  0.18363495  0.64640314  0.74924694    -0.81100
C263        C  0.23752554  0.65100005  0.83891182     0.92800
C264        C  0.34877210  0.72864060  0.83486346     0.92600
Mg265      Mg  0.20501868  0.70584450  0.69309293     1.58000
O266        O  0.16148054  0.73133430  0.67133535    -0.81000
O267        O  0.24804184  0.67481124  0.70955390    -0.75200
O268        O  0.26288873  0.66816421  0.83576493    -0.81100
O269        O  0.33221587  0.82372515  0.78995324    -0.82800
O270        O  0.24057865  0.81919054  0.65389767    -0.81100
C271        C  0.26128660  0.66909987  0.73657292     0.87100
O272        O  0.23531942  0.74683842  0.68599778    -0.88300
O273        O  0.19489170  0.72254188  0.74120184    -0.88400
O274        O  0.18053389  0.77295316  0.73447760    -0.75400
Mg275      Mg  0.29075789  0.69366952  0.79533950     1.58000
O276        O  0.21432332  0.65283887  0.81886319    -0.82800
H277        H  0.34614456  0.74392851  0.72435389    -0.06500
O278        O  0.25117256  0.80344692  0.72803741    -0.88100
H279        H  0.22394372  0.83579180  0.75148248    -0.06300
H280        H  0.25964591  0.72457920  0.65072319    -0.06500
C281        C  0.24334155  0.81822676  0.75270153     0.87000
C282        C  0.32740143  0.74102128  0.74228466     0.87600
C283        C  0.25999506  0.74232604  0.66982045     0.87700
H284        H  0.15849640  0.74268136  0.76592340    -0.06500
O285        O  0.21792241  0.72923262  0.81386301    -0.75500
Mg286      Mg  0.21292760  0.79317611  0.69425767     1.58000
H287        H  0.24393929  0.76230360  0.83883986    -0.06500
C288        C  0.33615968  0.84384645  0.76726063     0.92700
O289        O  0.29031897  0.83292114  0.66969549    -0.82800
C290        C  0.26663254  0.83520525  0.65016242     0.92700
O291        O  0.33113017  0.70381685  0.83141331    -0.82700
Mg292      Mg  0.20417522  0.68852144  0.77896778     1.58200
O293        O  0.32200709  0.84010445  0.74011789    -0.81100
O294        O  0.17258647  0.66298382  0.69974511    -0.82800
N295        N  0.49631680  0.94574290  0.77067183    -0.36600
N296        N  0.45130419  0.99811645  0.77823764    -0.57200
N297        N  0.50508438  0.04409975  0.78024756    -0.36600
N298        N  0.55024024  0.99168901  0.76996620    -0.57200
C299        C  0.46811654  0.92994338  0.76562520     0.27000
C300        C  0.52044625  0.92669036  0.75945277     0.27000
C301        C  0.47975219  0.06429500  0.77512510     0.27000
C302        C  0.53246181  0.06077129  0.77385819     0.27000
C303        C  0.43028553  0.97357147  0.78226406     0.35600
C304        C  0.43480766  0.02541176  0.78501748     0.35600
C305        C  0.56709607  0.96366981  0.76954002     0.35600
C306        C  0.57177944  0.01529387  0.77660109     0.35600
C307        C  0.47447948  0.90023138  0.75162359    -0.21900
C308        C  0.50747275  0.89822259  0.74760696    -0.21900
C309        C  0.49119787  0.09430350  0.76588676    -0.21900
C310        C  0.52446939  0.09212735  0.76526497    -0.21900
C311        C  0.40030218  0.98528905  0.79172454    -0.23000
C312        C  0.40314148  0.01817913  0.79341839    -0.23000
C313        C  0.59956661  0.96953867  0.77565121    -0.23000
C314        C  0.60251359  0.00224708  0.78019727    -0.22900
C315        C  0.43689323  0.94116116  0.77427848    -0.18300
C316        C  0.55399388  0.93312461  0.76181848    -0.18300
C317        C  0.56448994  0.04867869  0.77643698    -0.18300
C318        C  0.44668091  0.05687520  0.78006837    -0.18300
H319        H  0.45716950  0.88185949  0.74500564     0.14600
H320        H  0.52047237  0.87786717  0.73751078     0.14600
H321        H  0.47705919  0.11565879  0.76040791     0.14600
H322        H  0.54089097  0.11138350  0.75895353     0.14600
H323        H  0.37841418  0.97167343  0.79593763     0.12900
H324        H  0.38384761  0.03493653  0.79929954     0.12900
H325        H  0.61915030  0.95210793  0.77640852     0.12900
H326        H  0.62481151  0.01503551  0.78490237     0.12900
H327        H  0.49932390  0.96657007  0.78419573     0.26200
H328        H  0.50391509  0.02131942  0.79056500     0.26100
N329        N  0.25232248  0.54468755  0.99651868    -0.36600
N330        N  0.25176987  0.49623302  0.04645475    -0.57200
N331        N  0.23633943  0.44739074  0.99889344    -0.36600
N332        N  0.23392100  0.49572581  0.94883894    -0.57200
C333        C  0.25266351  0.56358962  0.02312528     0.27000
C334        C  0.24239133  0.56328109  0.97162399     0.27000
C335        C  0.23104304  0.43061984  0.02632191     0.27000
C336        C  0.22393263  0.43003075  0.97425393     0.27000
C337        C  0.26435434  0.52095148  0.06347316     0.35600
C338        C  0.25502759  0.46972222  0.06506544     0.35600
C339        C  0.24090361  0.52080569  0.92931640     0.35600
C340        C  0.23506891  0.46892139  0.93026810     0.35600
C341        C  0.24327782  0.59468215  0.01494728    -0.21900
C342        C  0.23683056  0.59450055  0.98239373    -0.21900
C343        C  0.21494968  0.40224510  0.01904224    -0.21900
C344        C  0.21049492  0.40185745  0.98612449    -0.21900
C345        C  0.27555153  0.51014194  0.09307285    -0.23000
C346        C  0.26956751  0.47767035  0.09412314    -0.23000
C347        C  0.24602839  0.51004150  0.89810327    -0.23000
C348        C  0.24276535  0.47707078  0.89878674    -0.22900
C349        C  0.26219821  0.55364883  0.05433589    -0.18300
C350        C  0.24101069  0.55343063  0.93904771    -0.18300
C351        C  0.22752184  0.43750958  0.94119184    -0.18300
C352        C  0.24305789  0.43888854  0.05715938    -0.18300
H353        H  0.24149910  0.61540587  0.03073226     0.14600
H354        H  0.22932572  0.61510890  0.96817824     0.14600
H355        H  0.20793549  0.38337552  0.03560841     0.14600
H356        H  0.19934324  0.38268289  0.97238624     0.14600
H357        H  0.28613948  0.52434553  0.11223887     0.12900
H358        H  0.27480155  0.46185536  0.11422971     0.12900
H359        H  0.25170591  0.52443419  0.87711220     0.12900
H360        H  0.24524737  0.46101902  0.87835004     0.12900
H361        H  0.26169869  0.52144717  0.99469741     0.26200
H362        H  0.25156972  0.46709373  0.99652455     0.26100
N363        N  0.76076119  0.45230251  0.00190617    -0.36600
N364        N  0.76396814  0.49991910  0.95074804    -0.57200
N365        N  0.75264896  0.55076517  0.99833335    -0.36600
N366        N  0.75274345  0.50283855  0.04969839    -0.57200
C367        C  0.77068065  0.43347626  0.97719646     0.27000
C368        C  0.76483084  0.43501408  0.02919996     0.27000
C369        C  0.76025977  0.56855251  0.97200900     0.27000
C370        C  0.75523785  0.57016734  0.02455115     0.27000
C371        C  0.76251936  0.47282748  0.93261904     0.35600
C372        C  0.75825210  0.52489300  0.93057258     0.35600
C373        C  0.74768915  0.47691565  0.06878808     0.35600
C374        C  0.74430251  0.52907775  0.06715743     0.35600
C375        C  0.78093357  0.40380224  0.98888588    -0.21900
C376        C  0.77732114  0.40480016  0.02172865    -0.21900
C377        C  0.76747909  0.59975263  0.98157611    -0.21900
C378        C  0.76432696  0.60076954  0.01468368    -0.21900
C379        C  0.75651810  0.48063063  0.90070795    -0.23000
C380        C  0.75371210  0.51360236  0.89941129    -0.23000
C381        C  0.73626906  0.48669805  0.09862509    -0.23000
C382        C  0.73412321  0.51975355  0.09761083    -0.22900
C383        C  0.76776211  0.44119891  0.94424084    -0.18300
C384        C  0.75514913  0.44471163  0.06034486    -0.18300
C385        C  0.74787683  0.56142868  0.05687920    -0.18300
C386        C  0.75884786  0.55785779  0.93947810    -0.18300
H387        H  0.78945316  0.38324965  0.97516682     0.14600
H388        H  0.78257588  0.38517636  0.03814147     0.14600
H389        H  0.77399771  0.61980299  0.96624003     0.14600
H390        H  0.76796719  0.62176710  0.02973899     0.14600
H391        H  0.75437299  0.46428128  0.88047901     0.12900
H392        H  0.74896298  0.52764325  0.87792130     0.12900
H393        H  0.73046440  0.47162131  0.11909398     0.12900
H394        H  0.72628532  0.53517617  0.11719320     0.12900
H395        H  0.74794898  0.47373067  0.99986173     0.26200
H396        H  0.74268704  0.52787909  0.99797950     0.26100
O397        O  0.71998684  0.79455811  0.77006339    -0.88400
C398        C  0.70350467  0.69694774  0.76725243     0.87700
Mg399      Mg  0.72613748  0.82377730  0.72791322     1.58100
O400        O  0.78262584  0.71951368  0.79017282    -0.88100
O401        O  0.74544445  0.78291225  0.81474138    -0.75400
C402        C  0.83140511  0.74469307  0.63681264     0.92700
O403        O  0.68103145  0.75497364  0.71557416    -0.75200
O404        O  0.80701830  0.76342780  0.63502703    -0.82700
Mg405      Mg  0.67852707  0.76311305  0.77015738     1.58000
C406        C  0.85986186  0.66841188  0.74545904     0.92700
O407        O  0.66713805  0.76951085  0.82369549    -0.81000
H408        H  0.81353243  0.74229251  0.81938592    -0.06300
C409        C  0.76989888  0.69622799  0.69485148     0.87600
O410        O  0.78155856  0.82069243  0.73230610    -0.75500
O411        O  0.71045184  0.72306953  0.77963781    -0.88300
O412        O  0.83587402  0.66466500  0.76446380    -0.81100
C413        C  0.75774656  0.64950803  0.83300370     0.92800
C414        C  0.67253418  0.75425437  0.84978788     0.92600
Mg415      Mg  0.82771941  0.73490980  0.71710903     1.58000
O416        O  0.83754972  0.72853623  0.66228842    -0.81000
O417        O  0.82602268  0.74347780  0.77205819    -0.75200
O418        O  0.73999185  0.67450639  0.83680364    -0.81100
O419        O  0.64562252  0.80564845  0.76129659    -0.82800
O420        O  0.76714095  0.82571666  0.65368853    -0.81100
C421        C  0.80758332  0.73508420  0.79505186     0.87100
O422        O  0.79633518  0.77574224  0.70890645    -0.88300
O423        O  0.78578398  0.70414678  0.71881145    -0.88400
O424        O  0.75955106  0.71699082  0.67474819    -0.75400
Mg425      Mg  0.74152411  0.72804868  0.82129900     1.58000
O426        O  0.77576848  0.64618739  0.80833082    -0.82800
H427        H  0.73938882  0.82857389  0.79812198    -0.06500
O428        O  0.72398608  0.78059386  0.69901238    -0.88100
H429        H  0.69393481  0.75839977  0.66853693    -0.06300
H430        H  0.82843469  0.80661328  0.72737390    -0.06500
C431        C  0.69936317  0.76486723  0.69319820     0.87000
C432        C  0.73471979  0.80320104  0.79444845     0.87600
C433        C  0.80328607  0.80120623  0.72266333     0.87700
H434        H  0.76410971  0.67108218  0.69124379    -0.06500
O435        O  0.72531210  0.67721829  0.75836754    -0.75500
Mg436      Mg  0.76441757  0.77196490  0.66792726     1.58000
H437        H  0.67834441  0.69109026  0.76320140    -0.06500
C438        C  0.64693938  0.83002895  0.74277868     0.92700
O439        O  0.73242854  0.85418191  0.68335536    -0.82800
C440        C  0.75059180  0.85123183  0.65877715     0.92700
O441        O  0.69754047  0.73653001  0.85320090    -0.82700
Mg442      Mg  0.78085625  0.67552355  0.76221302     1.58200
O443        O  0.67161931  0.83548315  0.72527357    -0.81100
O444        O  0.86035752  0.69156157  0.72540383    -0.82800
N445        N  0.74230841  0.95864321  0.50080269    -0.36600
N446        N  0.73244664  0.00777740  0.45169359    -0.57200
N447        N  0.72232935  0.05497396  0.50218043    -0.36600
N448        N  0.72943018  0.00627379  0.55116349    -0.57200
C449        C  0.73970490  0.94000155  0.47411582     0.27000
C450        C  0.73853079  0.93923695  0.52674765     0.27000
C451        C  0.71451664  0.07265372  0.47602187     0.27000
C452        C  0.71252471  0.07179149  0.52829565     0.27000
C453        C  0.74307374  0.98343966  0.43278796     0.35600
C454        C  0.73448151  0.03492716  0.43385729     0.35600
C455        C  0.73964851  0.98141633  0.56957783     0.35600
C456        C  0.72987580  0.03270243  0.57022608     0.35600
C457        C  0.73482026  0.90821534  0.48327154    -0.21900
C458        C  0.73399494  0.90775269  0.51646488    -0.21900
C459        C  0.69919152  0.10092831  0.48554251    -0.21900
C460        C  0.69789910  0.10036768  0.51862155    -0.21900
C461        C  0.75109125  0.99503471  0.40249832    -0.23000
C462        C  0.74588370  0.02776195  0.40326534    -0.23000
C463        C  0.74596789  0.99195830  0.60067868    -0.23000
C464        C  0.73975965  0.02450329  0.60108347    -0.22900
C465        C  0.74344840  0.95064743  0.44185134    -0.18300
C466        C  0.74080092  0.94892928  0.55942752    -0.18300
C467        C  0.72033476  0.06391700  0.56039203    -0.18300
C468        C  0.72468631  0.06583750  0.44435426    -0.18300
H469        H  0.73232627  0.88743635  0.46768301     0.14600
H470        H  0.73069166  0.88658264  0.53133768     0.14600
H471        H  0.69092982  0.12050321  0.47032347     0.14600
H472        H  0.68845567  0.11943664  0.53380576     0.14600
H473        H  0.75971430  0.98136741  0.38197265     0.12900
H474        H  0.74958859  0.04429914  0.38344336     0.12900
H475        H  0.75389608  0.97761957  0.62102820     0.12900
H476        H  0.74204897  0.04026414  0.62175620     0.12900
H477        H  0.74975615  0.98251971  0.50139883     0.26200
H478        H  0.73828407  0.03555570  0.50236546     0.26100
O479        O  0.72059604  0.30272419  0.22518084    -0.88400
C480        C  0.72811390  0.20760321  0.20060494     0.87700
Mg481      Mg  0.76243567  0.33225930  0.23502324     1.58100
O482        O  0.70154644  0.22405074  0.27963270    -0.88100
O483        O  0.67476064  0.28826258  0.24679284    -0.75400
C484        C  0.85289501  0.24959846  0.33873307     0.92700
O485        O  0.77741262  0.26767056  0.18605623    -0.75200
O486        O  0.85530110  0.27010905  0.31604260    -0.82700
Mg487      Mg  0.72220685  0.27493120  0.18111671     1.58000
C488        C  0.74223071  0.17112289  0.35522488     0.92700
O489        O  0.66765609  0.28061009  0.16824395    -0.81000
H490        H  0.67027317  0.24432753  0.31041331    -0.06300
C491        C  0.79943565  0.20417298  0.27171979     0.87600
O492        O  0.75621389  0.32613288  0.28969915    -0.75500
O493        O  0.71298350  0.23209951  0.20856601    -0.88300
O494        O  0.72660000  0.16813383  0.32896912    -0.81100
C495        C  0.66287098  0.15377849  0.24987603     0.92800
C496        C  0.64179783  0.26424391  0.17188482     0.92600
Mg497      Mg  0.77238500  0.23860643  0.33006700     1.58000
O498        O  0.82726667  0.23289472  0.34270116    -0.81000
O499        O  0.71713335  0.24584219  0.32518276    -0.75200
O500        O  0.65678867  0.17919333  0.23353247    -0.81100
O501        O  0.73174063  0.31997486  0.15184849    -0.82800
O502        O  0.83585664  0.33433926  0.27927219    -0.81100
C503        C  0.69515505  0.23799665  0.30521238     0.87100
O504        O  0.78118901  0.28133307  0.30251589    -0.88300
O505        O  0.77406583  0.21111747  0.28588601    -0.88400
O506        O  0.81972550  0.22569082  0.26391504    -0.75400
Mg507      Mg  0.67040078  0.23349131  0.23872825     1.58000
O508        O  0.68832837  0.15115810  0.26686455    -0.82800
H509        H  0.69045688  0.33458478  0.24560285    -0.06500
O510        O  0.79284757  0.28998122  0.23139322    -0.88100
H511        H  0.82424225  0.26951698  0.20086486    -0.06300
H512        H  0.76040653  0.30971576  0.33559843    -0.06500
C513        C  0.79933098  0.27583120  0.20595168     0.87000
C514        C  0.69516000  0.30973119  0.23916234     0.87600
C515        C  0.76612436  0.30587928  0.31045645     0.87700
H516        H  0.80413785  0.17933632  0.26521377    -0.06500
O517        O  0.73847912  0.18760542  0.22137439    -0.75500
Mg518      Mg  0.82360569  0.28039087  0.27245327     1.58000
H519        H  0.73363042  0.20368924  0.17543007    -0.06500
C520        C  0.75149362  0.34308363  0.15589480     0.92700
O521        O  0.80675414  0.36302640  0.24412064    -0.82800
C522        C  0.83105356  0.35975660  0.26267109     0.92700
O523        O  0.63882979  0.24393678  0.19476582    -0.82700
Mg524      Mg  0.73217101  0.18186015  0.27600528     1.58200
O525        O  0.76727291  0.34637513  0.18199934    -0.81100
O526        O  0.76254028  0.19368301  0.35941306    -0.82800
N527        N  0.99960304  0.55497623  0.22908889    -0.36600
N528        N  0.04568416  0.50195301  0.23609605    -0.57200
N529        N  0.99236675  0.45779894  0.24596121    -0.36600
N530        N  0.94632018  0.51109250  0.24219126    -0.57200
C531        C  0.02750576  0.57170581  0.23203076     0.27000
C532        C  0.97496375  0.57629791  0.23256199     0.27000
C533        C  0.01783763  0.43832153  0.25289685     0.27000
C534        C  0.96548019  0.44353712  0.25784085     0.27000
C535        C  0.06651176  0.52567613  0.22816237     0.35600
C536        C  0.06243003  0.47395042  0.23414573     0.35600
C537        C  0.92897933  0.53747271  0.23358042     0.35600
C538        C  0.92517914  0.48634267  0.24389486     0.35600
C539        C  0.02044463  0.60413496  0.23664593    -0.21900
C540        C  0.98736560  0.60706772  0.23669238    -0.21900
C541        C  0.00702297  0.41128536  0.26923926    -0.21900
C542        C  0.97401062  0.41461525  0.27244220    -0.21900
C543        C  0.09676927  0.51277609  0.22143537    -0.23000
C544        C  0.09413216  0.47993819  0.22498597    -0.23000
C545        C  0.89658297  0.52955709  0.23024884    -0.23000
C546        C  0.89419474  0.49712925  0.23662149    -0.22900
C547        C  0.05925243  0.55897405  0.22942219    -0.18300
C548        C  0.94155969  0.56905231  0.23115522    -0.18300
C549        C  0.93319360  0.45455690  0.25363486    -0.18300
C550        C  0.05035200  0.44350563  0.24353218    -0.18300
H551        H  0.03734675  0.62380838  0.23946486     0.14600
H552        H  0.97406010  0.62942987  0.23956558     0.14600
H553        H  0.02140458  0.39115072  0.27782759     0.14600
H554        H  0.95801963  0.39745068  0.28384636     0.14600
H555        H  0.11853373  0.52572432  0.21503804     0.12900
H556        H  0.11356721  0.46257154  0.22208249     0.12900
H557        H  0.87669865  0.54553840  0.22416954     0.12900
H558        H  0.87209615  0.48320854  0.23635009     0.12900
H559        H  0.99740299  0.53102255  0.22218266     0.26200
H560        H  0.99281994  0.47749906  0.23051248     0.26100
O561        O  0.23825248  0.68759619  0.24600568    -0.88400
C562        C  0.24825865  0.75241574  0.17195905     0.87700
Mg563      Mg  0.20534999  0.69625309  0.28574387     1.58100
O564        O  0.31461680  0.74783180  0.22474300    -0.88100
O565        O  0.28888489  0.67641732  0.23469614    -0.75400
C566        C  0.24395468  0.84212549  0.33608887     0.92700
O567        O  0.18463000  0.73621856  0.21601688    -0.75200
O568        O  0.21937202  0.82389436  0.33376807    -0.82700
Mg569      Mg  0.21784602  0.69517246  0.19855099     1.58000
C570        C  0.35433053  0.83447361  0.25841670     0.92700
O571        O  0.24545431  0.65278082  0.17611300    -0.81000
H572        H  0.35028571  0.72262650  0.24559600    -0.06300
C573        C  0.24997377  0.82079960  0.24246706     0.87600
O574        O  0.24724054  0.71331070  0.31816105    -0.75500
O575        O  0.25564667  0.72850307  0.18813070    -0.88300
O576        O  0.34874647  0.81888742  0.23256988    -0.81100
C577        C  0.33910891  0.76325367  0.14378124     0.92800
C578        C  0.26888294  0.64943500  0.15655502     0.92600
Mg579      Mg  0.29572584  0.79571782  0.29429243     1.58000
O580        O  0.26957707  0.83723213  0.31969234    -0.81000
O581        O  0.32781759  0.75454980  0.27528127    -0.75200
O582        O  0.32356741  0.73747647  0.14935169    -0.81100
O583        O  0.17794965  0.65999149  0.20849203    -0.82800
O584        O  0.18596540  0.75543239  0.34222770    -0.81100
C585        C  0.33190603  0.74111584  0.24809976     0.87100
O586        O  0.25638693  0.76327922  0.30465217    -0.88300
O587        O  0.27446233  0.80432866  0.24747801    -0.88400
O588        O  0.22370239  0.81575523  0.25745981    -0.75400
Mg589      Mg  0.30372460  0.70930717  0.19226359     1.58000
O590        O  0.33802527  0.78692224  0.16336067    -0.82800
H591        H  0.26328476  0.65362162  0.26966447    -0.06500
O592        O  0.19733121  0.74401402  0.26654818    -0.88100
H593        H  0.16167727  0.76858767  0.24488440    -0.06300
H594        H  0.28113535  0.74127537  0.33984574    -0.06500
C595        C  0.18023783  0.75021679  0.24289049     0.87000
C596        C  0.26318452  0.67168619  0.25088094     0.87600
C597        C  0.26233500  0.73965679  0.32177433     0.87700
H598        H  0.25065580  0.83932818  0.22415645    -0.06500
O599        O  0.26236224  0.77923380  0.17595186    -0.75500
Mg600      Mg  0.20803568  0.78292110  0.29913981     1.58000
H601        H  0.22876529  0.75068724  0.15464207    -0.06500
C602        C  0.15910614  0.65644420  0.23231921     0.92700
O603        O  0.16962662  0.70693698  0.32677964    -0.82800
C604        C  0.16771868  0.73099244  0.34588139     0.92700
O605        O  0.29232377  0.66918183  0.15669187    -0.82700
Mg606      Mg  0.30541167  0.79587816  0.20673294     1.58200
O607        O  0.16324489  0.67178676  0.25865901    -0.81100
O608        O  0.33659581  0.83079263  0.28324568    -0.82800
N609        N  0.25932315  0.04466147  0.49850027    -0.36600
N610        N  0.25109505  0.99681978  0.44767730    -0.57200
N611        N  0.26117946  0.94580679  0.49464242    -0.36600
N612        N  0.26638574  0.99364028  0.54577365    -0.57200
C613        C  0.24901366  0.06362194  0.47398850     0.27000
C614        C  0.25635857  0.06197719  0.52601268     0.27000
C615        C  0.25086240  0.92854070  0.46894774     0.27000
C616        C  0.25842955  0.92665947  0.52087577     0.27000
C617        C  0.25327929  0.02361039  0.42933190     0.35600
C618        C  0.25394894  0.97151695  0.42733244     0.35600
C619        C  0.27207017  0.01911263  0.56528231     0.35600
C620        C  0.27302584  0.96688681  0.56319179     0.35600
C621        C  0.23976245  0.09349381  0.48597205    -0.21900
C622        C  0.24426984  0.09241982  0.51881817    -0.21900
C623        C  0.24190138  0.89794747  0.47886616    -0.21900
C624        C  0.24671234  0.89673192  0.51162556    -0.21900
C625        C  0.25704941  0.01529206  0.39717198    -0.18200
C626        C  0.25755914  0.98224669  0.39591907    -0.23000
C627        C  0.28223352  0.00848248  0.59532669    -0.23000
C628        C  0.28279526  0.97538717  0.59401696    -0.22900
C629        C  0.24994128  0.05545880  0.44090286    -0.18300
C630        C  0.26575931  0.05168039  0.55721233    -0.18300
C631        C  0.26722221  0.93496204  0.55278121    -0.18300
C632        C  0.25141366  0.93887717  0.43649255    -0.18300
H633        H  0.23095081  0.11404914  0.47243257     0.14600
H634        H  0.23953759  0.11199473  0.53545796     0.14600
H635        H  0.23309407  0.87841864  0.46397433     0.14600
H636        H  0.24217408  0.87606711  0.52686789     0.14600
H637        H  0.25898064  0.03134417  0.37670484     0.12900
H638        H  0.26000783  0.96779187  0.37431863     0.12900
H639        H  0.28794581  0.02301978  0.61623033     0.12900
H640        H  0.28890893  0.95939841  0.61374455     0.12900
H641        H  0.27122948  0.02270479  0.49605583     0.26200
H642        H  0.27276400  0.96795294  0.49377826     0.26100
O643        O  0.26948423  0.25008889  0.80751944    -0.88400
C644        C  0.24944787  0.31757710  0.73958755     0.87700
Mg645      Mg  0.30462677  0.21265181  0.79893875     1.58100
O646        O  0.18969803  0.25823319  0.75082456    -0.88100
O647        O  0.21889888  0.25644286  0.82156265    -0.75400
C648        C  0.26508623  0.14838247  0.65821641     0.92700
O649        O  0.31763699  0.28041914  0.75506351    -0.75200
O650        O  0.29048465  0.15387249  0.67477765    -0.82700
Mg651      Mg  0.28550779  0.29825780  0.79702282     1.58000
C652        C  0.14845569  0.21620295  0.66882999     0.92700
O653        O  0.25764109  0.32213008  0.83870694    -0.81000
H654        H  0.15782143  0.23566075  0.77905683    -0.06300
C655        C  0.25064574  0.24155344  0.67447608     0.87600
O656        O  0.26479476  0.17618272  0.78671247    -0.75500
O657        O  0.24458749  0.30374355  0.76548715    -0.88300
O658        O  0.15282211  0.24303227  0.68305847    -0.81100
C659        C  0.15403253  0.33411593  0.73058805     0.92800
C660        C  0.23075556  0.33627489  0.84423068     0.92600
Mg661      Mg  0.21205933  0.18777932  0.70521747     1.58000
O662        O  0.23846162  0.16295981  0.66366667    -0.81000
O663        O  0.18081958  0.20639823  0.74713193    -0.75200
O664        O  0.16975300  0.33300668  0.75712459    -0.81100
O665        O  0.32834783  0.29231489  0.83133907    -0.82800
O666        O  0.32744768  0.15440380  0.74228059    -0.81100
C667        C  0.17515779  0.23380459  0.75962124     0.87100
O668        O  0.25363730  0.18300127  0.73568406    -0.88300
O669        O  0.22856181  0.23551231  0.69350323    -0.88400
O670        O  0.27872826  0.22970671  0.67823669    -0.75400
Mg671      Mg  0.19767502  0.29444268  0.78691558     1.58000
O672        O  0.15856534  0.31315940  0.70881975    -0.82800
H673        H  0.25025902  0.22673925  0.84501184    -0.06500
O674        O  0.30841686  0.22879166  0.74956690    -0.88100
H675        H  0.34060095  0.25206157  0.72222928    -0.06300
H676        H  0.23267937  0.14863318  0.76209203    -0.06500
C677        C  0.32310132  0.25341204  0.74155861     0.87000
C678        C  0.24667785  0.24384424  0.82565874     0.87600
C679        C  0.24985507  0.16820907  0.76121211     0.87700
H680        H  0.24621835  0.25810170  0.65481116    -0.06500
O681        O  0.23511853  0.30911570  0.71388826    -0.75500
Mg682      Mg  0.29993631  0.19243763  0.71315942     1.58000
H683        H  0.26716169  0.33666335  0.73857117    -0.06500
C684        C  0.34933181  0.26982528  0.83370352     0.92700
O685        O  0.34186182  0.17356771  0.79000582    -0.82800
C686        C  0.34495300  0.15298579  0.76746849     0.92700
O687        O  0.20633969  0.33210059  0.82590815    -0.82700
Mg688      Mg  0.19466532  0.27347837  0.70146284     1.58200
O689        O  0.34640957  0.24379128  0.81775340    -0.81100
O690        O  0.16842343  0.19299995  0.67207680    -0.82800
N691        N  0.99658287  0.44741414  0.71676358    -0.36600
N692        N  0.05097793  0.49142657  0.71635463    -0.57200
N693        N  0.00735806  0.54561429  0.72416815    -0.36600
N694        N  0.95274693  0.50181914  0.72672897    -0.57200
C695        C  0.02134710  0.42660248  0.72244118     0.27000
C696        C  0.96882070  0.43209046  0.72452991     0.27000
C697        C  0.03629966  0.55992209  0.72932821     0.27000
C698        C  0.98425581  0.56528348  0.73658715     0.27000
C699        C  0.06687587  0.46364330  0.71014934     0.35600
C700        C  0.07230126  0.51538091  0.71108699     0.35600
C701        C  0.93082283  0.47861819  0.71999940     0.35600
C702        C  0.93665513  0.53032991  0.72587875     0.35600
C703        C  0.00911254  0.39753027  0.73339417    -0.21900
C704        C  0.97594988  0.40095348  0.73462730    -0.21900
C705        C  0.03156880  0.58915544  0.74486980    -0.21900
C706        C  0.99876902  0.59242609  0.74968779    -0.21900
C707        C  0.09845020  0.46994694  0.70080401    -0.23000
C708        C  0.10183545  0.50281830  0.70120880    -0.23000
C709        C  0.90062325  0.49242441  0.71489722    -0.23000
C710        C  0.90432787  0.52518733  0.71853432    -0.22900
C711        C  0.05456591  0.43276378  0.71685938    -0.18300
C712        C  0.93716406  0.44505032  0.72140096    -0.18300
C713        C  0.95034480  0.56053069  0.73423029    -0.18300
C714        C  0.06675004  0.54788961  0.71923487    -0.18300
H715        H  0.02265207  0.37601909  0.73969336     0.14600
H716        H  0.95901056  0.38260107  0.74215096     0.14600
H717        H  0.04985109  0.60635075  0.75204111     0.14600
H718        H  0.98694107  0.61272662  0.76120375     0.14600
H719        H  0.11736359  0.45264569  0.69529287     0.12900
H720        H  0.12391558  0.51586574  0.69624793     0.12900
H721        H  0.87816198  0.48012133  0.70968645     0.12900
H722        H  0.88527504  0.54309282  0.71658045     0.12900
H723        H  0.99811474  0.46966113  0.70534369     0.26200
H724        H  0.00340678  0.52551177  0.70974256     0.26100
N725        N  0.48998097  0.25793410  0.05227791    -0.36600
N726        N  0.54406238  0.26881150  0.00844838    -0.57200
N727        N  0.49871770  0.26908708  0.95484722    -0.36600
N728        N  0.44452398  0.26188967  0.99856892    -0.57200
C729        C  0.51358081  0.26551981  0.07365182     0.27000
C730        C  0.46137755  0.25873738  0.06818395     0.27000
C731        C  0.52646014  0.27752178  0.93995556     0.27000
C732        C  0.47398172  0.27774878  0.93524659     0.27000
C733        C  0.56082239  0.26405537  0.03608683     0.35600
C734        C  0.56550732  0.26565677  0.98396544     0.35600
C735        C  0.42425059  0.25056106  0.02145957     0.35600
C736        C  0.42866568  0.25957874  0.97010375     0.35600
C737        C  0.49976136  0.27094428  0.10365373    -0.21900
C738        C  0.46688327  0.26663467  0.10022164    -0.21900
C739        C  0.51939771  0.29169396  0.91050361    -0.21900
C740        C  0.48624223  0.29211006  0.90765095    -0.21900
C741        C  0.59324279  0.25864238  0.02915258    -0.23000
C742        C  0.59615262  0.25936535  0.99611300    -0.23000
C743        C  0.39525396  0.24121931  0.00748672    -0.23000
C744        C  0.39806055  0.24691999  0.97494870    -0.22900
C745        C  0.54742061  0.26533942  0.06750927    -0.18300
C746        C  0.43063346  0.25093711  0.05500940    -0.18300
C747        C  0.44094773  0.27029080  0.94011236    -0.18300
C748        C  0.55801580  0.27031394  0.95098260    -0.18300
H749        H  0.51214429  0.27688328  0.12587425     0.14600
H750        H  0.44908330  0.26877638  0.11926010     0.14600
H751        H  0.53641250  0.30045281  0.89273868     0.14600
H752        H  0.47274329  0.30116235  0.88715577     0.14600
H753        H  0.61271880  0.25435689  0.04611339     0.12900
H754        H  0.61835098  0.25609524  0.98262924     0.12900
H755        H  0.37413783  0.23166380  0.01953157     0.12900
H756        H  0.37959811  0.24254283  0.95696310     0.12900
H757        H  0.49346817  0.24902264  0.02894783     0.26200
H758        H  0.49718243  0.25416538  0.97509735     0.26100
N759        N  0.45359907  0.75152848  0.98970077    -0.36600
N760        N  0.50690694  0.75007744  0.94466863    -0.57200
N761        N  0.55171288  0.75975358  0.99793859    -0.36600
N762        N  0.49845648  0.76432154  0.04270615    -0.57200
C763        C  0.43742447  0.75194497  0.96131462     0.27000
C764        C  0.43289854  0.76226512  0.01263163     0.27000
C765        C  0.57136595  0.76593549  0.97265829     0.27000
C766        C  0.56730711  0.76955988  0.02485442     0.27000
C767        C  0.48343553  0.73881627  0.92500544     0.35600
C768        C  0.53521036  0.74622560  0.92880947     0.35600
C769        C  0.47070062  0.76060810  0.05945779     0.35600
C770        C  0.52294282  0.76133944  0.06417755     0.35600
C771        C  0.40598614  0.76273193  0.96631912    -0.21900
C772        C  0.40317529  0.76937717  0.99867485    -0.21900
C773        C  0.59978563  0.77987286  0.98369851    -0.21900
C774        C  0.59732258  0.78189843  0.01670333    -0.21900
C775        C  0.49687306  0.72776146  0.89643494    -0.23000
C776        C  0.52970962  0.73268078  0.89875607    -0.23000
C777        C  0.47755696  0.75575370  0.09183552    -0.23000
C778        C  0.51071948  0.75608225  0.09479846    -0.22900
C779        C  0.44990850  0.74168278  0.93123013    -0.18300
C780        C  0.43925612  0.76332370  0.04614057    -0.18300
C781        C  0.55602103  0.76543734  0.05668534    -0.18300
C782        C  0.56561887  0.75671110  0.94033810    -0.18300
H783        H  0.38700080  0.76550371  0.94851719     0.14600
H784        H  0.38153333  0.77803633  0.01064496     0.14600
H785        H  0.62050888  0.78710577  0.96952248     0.14600
H786        H  0.61564347  0.79114647  0.03287735     0.14600
H787        H  0.48422567  0.71811413  0.87573167     0.12900
H788        H  0.54744817  0.72727520  0.88031047     0.12900
H789        H  0.46045722  0.75241094  0.11129334     0.12900
H790        H  0.52424900  0.75325229  0.11698137     0.12900
H791        H  0.47611162  0.74099461  0.99373300     0.26200
H792        H  0.53090231  0.74580894  0.99741531     0.26100
C793        C  0.42320617  0.25056386  0.88623473    -0.20300
C794        C  0.41868930  0.27231189  0.91172493    -0.06900
C795        C  0.39421241  0.29605114  0.90926397     0.14000
C796        C  0.37311701  0.29572321  0.88263279    -0.20400
C797        C  0.37611958  0.27254851  0.85790649    -0.06900
C798        C  0.40267366  0.25054831  0.85919829     0.14000
C799        C  0.41010631  0.22709256  0.83233184    -0.23700
H800        H  0.44286682  0.23319694  0.88774300     0.15300
H801        H  0.35352685  0.31316454  0.88175307     0.15300
C802        C  0.39058966  0.32199428  0.93447330    -0.23700
H803        H  0.43359954  0.21449745  0.83618491     0.05500
H804        H  0.41170155  0.24019846  0.80905500     0.08700
H805        H  0.39122901  0.20820734  0.83098150     0.08700
H806        H  0.41354722  0.33567831  0.93651966     0.08700
H807        H  0.38470000  0.31117923  0.95817262     0.08700
H808        H  0.37093575  0.33929960  0.92827004     0.05500
C809        C  0.08694055  0.38748809  0.69438604    -0.20300
C810        C  0.07852925  0.40627518  0.72111580    -0.06900
C811        C  0.09509157  0.40179125  0.75055460     0.14000
C812        C  0.11981867  0.37862740  0.75249874    -0.20400
C813        C  0.12862950  0.35951885  0.72581163    -0.06900
C814        C  0.11167310  0.36414200  0.69616777     0.14000
C815        C  0.11930673  0.34520715  0.66600066    -0.23700
H816        H  0.07431179  0.39155908  0.67181797     0.15300
H817        H  0.13207209  0.37538891  0.77539400     0.15300
C818        C  0.08737247  0.42112339  0.78040398    -0.23700
H819        H  0.10448795  0.35332581  0.64514062     0.05500
H820        H  0.11395461  0.31927504  0.66977198     0.08700
H821        H  0.14514109  0.34841824  0.65939924     0.08700
H822        H  0.06729837  0.43860013  0.77686159     0.08700
H823        H  0.10915627  0.43477100  0.78799765     0.08700
H824        H  0.08027347  0.40452978  0.80014547     0.05500
C825        C  0.29229152  0.12057812  0.61208770    -0.20300
C826        C  0.26550824  0.12320482  0.63278473    -0.06900
C827        C  0.23960574  0.10100714  0.62948971     0.14000
C828        C  0.24049901  0.07800549  0.60472550    -0.20400
C829        C  0.26670840  0.07616277  0.58347270    -0.06900
C830        C  0.29313130  0.09729238  0.58740175     0.14000
C831        C  0.32225084  0.09494976  0.56571366    -0.23700
H832        H  0.31239984  0.13703139  0.61498434     0.15300
H833        H  0.22063283  0.06124129  0.60185392     0.15300
C834        C  0.21151373  0.10037456  0.65274336    -0.23700
H835        H  0.34103027  0.11286678  0.57232095     0.05500
H836        H  0.31495314  0.09941212  0.54034372     0.08700
H837        H  0.33313402  0.07048138  0.56763227     0.08700
H838        H  0.19689747  0.12275680  0.65052762     0.08700
H839        H  0.22066844  0.09789192  0.67779994     0.08700
H840        H  0.19506992  0.07979423  0.64795412     0.05500
C841        C  0.38076209  0.79204601  0.11126525    -0.20300
C842        C  0.36105172  0.76465880  0.11513991    -0.06900
C843        C  0.36528699  0.73830018  0.09340636     0.14000
C844        C  0.39040489  0.73928060  0.07069091    -0.20400
C845        C  0.41118366  0.76572909  0.06852548    -0.06900
C846        C  0.40554306  0.79299421  0.08817406     0.14000
C847        C  0.42530474  0.82334717  0.08557417    -0.23700
H848        H  0.37755849  0.81271532  0.12697402     0.15300
H849        H  0.39457198  0.71876385  0.05498171     0.15300
C850        C  0.34426562  0.70858767  0.09387073    -0.23700
H851        H  0.40900798  0.84407859  0.08035160     0.05500
H852        H  0.44363965  0.82223822  0.06611076     0.08700
H853        H  0.43798442  0.82782222  0.10875002     0.08700
H854        H  0.31841686  0.71558036  0.09115796     0.08700
H855        H  0.34798857  0.69501309  0.11662758     0.08700
H856        H  0.35019593  0.69179486  0.07382391     0.05500
C857        C  0.27363175  0.87168293  0.37831768    -0.20300
C858        C  0.24473136  0.86795495  0.36077759    -0.06900
C859        C  0.21783528  0.88788970  0.36814433     0.14000
C860        C  0.22057544  0.91085744  0.39297278    -0.20400
C861        C  0.24938560  0.91406491  0.41066401    -0.06900
C862        C  0.27624678  0.89434725  0.40318850     0.14000
C863        C  0.30782213  0.89746341  0.42118173    -0.23700
H864        H  0.29422480  0.85628509  0.37292867     0.15300
H865        H  0.20020386  0.92641296  0.39869388     0.15300
C866        C  0.18668253  0.88577981  0.34938280    -0.23700
H867        H  0.32659221  0.88072391  0.41165426     0.05500
H868        H  0.30423614  0.89175999  0.44705005     0.08700
H869        H  0.31705096  0.92246226  0.41886732     0.08700
H870        H  0.17533718  0.86187597  0.35312592     0.08700
H871        H  0.19160833  0.88938792  0.32332694     0.08700
H872        H  0.16897293  0.90446835  0.35715711     0.05500
C873        C  0.09299073  0.59997756  0.20185789    -0.20300
C874        C  0.08645777  0.58229954  0.22987842    -0.06900
C875        C  0.10347753  0.58932185  0.25856294     0.14000
C876        C  0.12651851  0.61398474  0.25849389    -0.20400
C877        C  0.13314711  0.63190089  0.23053876    -0.06900
C878        C  0.11615509  0.62468076  0.20173531     0.14000
C879        C  0.12119822  0.64360483  0.17116420    -0.23700
H880        H  0.07936838  0.59474928  0.18014169     0.15300
H881        H  0.13969193  0.61900970  0.28054412     0.15300
C882        C  0.09761823  0.57171220  0.28980518    -0.23700
H883        H  0.10412980  0.63613013  0.15188043     0.05500
H884        H  0.14600926  0.63961189  0.16189473     0.08700
H885        H  0.11727766  0.66969496  0.17587555     0.08700
H886        H  0.12040226  0.55979045  0.29773633     0.08700
H887        H  0.07868577  0.55297453  0.28794475     0.08700
H888        H  0.08989313  0.58921164  0.30858898     0.05500
C889        C  0.58547173  0.29437974  0.10451560    -0.20300
C890        C  0.57013207  0.26555710  0.09565577    -0.06900
C891        C  0.57715038  0.23708992  0.11295698     0.14000
C892        C  0.59938469  0.23800584  0.13859534    -0.20400
C893        C  0.61564657  0.26655038  0.14705455    -0.06900
C894        C  0.60831665  0.29525442  0.12980870     0.14000
C895        C  0.62400590  0.32694961  0.13809474    -0.23700
H896        H  0.57988288  0.31618148  0.09117810     0.15300
H897        H  0.60510700  0.21583925  0.15126472     0.15300
C898        C  0.56196911  0.20546059  0.10362207    -0.23700
H899        H  0.61370909  0.34712454  0.12369639     0.05500
H900        H  0.65033852  0.32587719  0.13292453     0.08700
H901        H  0.62008307  0.33253999  0.16398001     0.08700
H902        H  0.56824961  0.19956558  0.07826655     0.08700
H903        H  0.53524611  0.20711315  0.10599685     0.08700
H904        H  0.57059192  0.18535197  0.11914126     0.05500
C905        C  0.85939533  0.40822279  0.28488828    -0.20300
C906        C  0.85692455  0.38412663  0.26130084    -0.06900
C907        C  0.87983252  0.38283282  0.23607056     0.14000
C908        C  0.90416939  0.40616513  0.23439110    -0.20400
C909        C  0.90660042  0.43060097  0.25760227    -0.06900
C910        C  0.88416744  0.43145248  0.28347100     0.14000
C911        C  0.88595095  0.45614134  0.31004647    -0.23700
H912        H  0.84206228  0.40886127  0.30449213     0.15300
H913        H  0.92156444  0.40535140  0.21483807     0.15300
C914        C  0.87886387  0.35643323  0.21107020    -0.23700
H915        H  0.86336086  0.47077109  0.31025390     0.05500
H916        H  0.90674616  0.47271890  0.30741831     0.08700
H917        H  0.88850629  0.44369026  0.33360720     0.08700
H918        H  0.85545585  0.35723591  0.19797163     0.08700
H919        H  0.88152351  0.33258951  0.22298425     0.08700
H920        H  0.89864739  0.35887511  0.19312474     0.05500
C921        C  0.75746218  0.10993550  0.42199458    -0.20300
C922        C  0.72805209  0.09338915  0.42203168    -0.06900
C923        C  0.70262853  0.10352034  0.40183672     0.14000
C924        C  0.70743503  0.13005444  0.38147021    -0.20400
C925        C  0.73729860  0.14634079  0.38054033    -0.06900
C926        C  0.76263195  0.13610619  0.40134278     0.14000
C927        C  0.79570222  0.15129968  0.40096463    -0.23700
H928        H  0.77669978  0.10182678  0.43789710     0.15300
H929        H  0.68790185  0.13784893  0.36586174     0.15300
C930        C  0.67071476  0.08610198  0.40174511    -0.23700
H931        H  0.81268979  0.13915145  0.41787627     0.05500
H932        H  0.79398063  0.17698072  0.40834170     0.08700
H933        H  0.80614433  0.14936504  0.37639667     0.08700
H934        H  0.65991075  0.08665686  0.42622306     0.08700
H935        H  0.67449108  0.06062968  0.39431861     0.08700
H936        H  0.65316471  0.09738500  0.38492393     0.05500
C937        C  0.62509977  0.78178592  0.87497053    -0.20300
C938        C  0.64741860  0.75593583  0.87557303    -0.06900
C939        C  0.64251402  0.73055565  0.89804841     0.14000
C940        C  0.61577392  0.73186004  0.91889674    -0.20400
C941        C  0.59344149  0.75733025  0.91765655    -0.06900
C942        C  0.59820059  0.78276015  0.89558848     0.14000
C943        C  0.57536081  0.81114262  0.89305192    -0.23700
H944        H  0.62826134  0.80125247  0.85782887     0.15300
H945        H  0.61181905  0.71252502  0.93601635     0.15300
C946        C  0.66422188  0.70121342  0.89951497    -0.23700
H947        H  0.56491029  0.81210003  0.86839768     0.05500
H948        H  0.58884577  0.83379180  0.89763163     0.08700
H949        H  0.55507914  0.81003357  0.91048558     0.08700
H950        H  0.68918971  0.70841704  0.90620351     0.08700
H951        H  0.66436103  0.68874827  0.87581765     0.08700
H952        H  0.65589082  0.68355026  0.91781064     0.05500
C953        C  0.88362430  0.61672242  0.76614653    -0.20300
C954        C  0.88629545  0.64337287  0.74519297    -0.06900
C955        C  0.91225785  0.64345447  0.72263448     0.14000
C956        C  0.93221751  0.61605888  0.71970000    -0.20400
C957        C  0.92850271  0.58904543  0.73967532    -0.06900
C958        C  0.90472724  0.59007745  0.76421275     0.14000
C959        C  0.90105029  0.56377391  0.78900115    -0.23700
H960        H  0.86467505  0.61635394  0.78420259     0.15300
H961        H  0.95101488  0.61560505  0.70146779     0.15300
C962        C  0.91960049  0.67199609  0.70142140    -0.23700
H963        H  0.87686023  0.55247015  0.78645965     0.05500
H964        H  0.90308634  0.57432845  0.81352208     0.08700
H965        H  0.91981475  0.54470641  0.78699389     0.08700
H966        H  0.92341837  0.69377628  0.71650709     0.08700
H967        H  0.89950027  0.67613301  0.68432673     0.08700
H968        H  0.94185906  0.66818481  0.68685747     0.05500
C969        C  0.72024448  0.89308158  0.62885936    -0.20300
C970        C  0.74990929  0.87708230  0.63402237    -0.06900
C971        C  0.77673368  0.88471266  0.61415131     0.14000
C972        C  0.77306517  0.90814750  0.58989467    -0.20400
C973        C  0.74327633  0.92369002  0.58476056    -0.06900
C974        C  0.71650791  0.91595922  0.60431284     0.14000
C975        C  0.68377262  0.93127252  0.59880251    -0.23700
H976        H  0.69945568  0.88693862  0.64351836     0.15300
H977        H  0.79349738  0.91445090  0.57480733     0.15300
C978        C  0.80937567  0.86893401  0.61869886    -0.23700
H979        H  0.66525482  0.92167715  0.61562406     0.05500
H980        H  0.67558705  0.92631362  0.57379396     0.08700
H981        H  0.68513125  0.95771966  0.60253021     0.08700
H982        H  0.80788457  0.84282340  0.61312804     0.08700
H983        H  0.81770766  0.87233529  0.64391940     0.08700
H984        H  0.82790671  0.87942367  0.60243894     0.05500
C985        C  0.78080381  0.41394692  0.10491101    -0.20300
C986        C  0.75360060  0.41934055  0.08549535    -0.06900
C987        C  0.72656783  0.39892013  0.08809099     0.14000
C988        C  0.72712554  0.37372778  0.11058509    -0.20400
C989        C  0.75413692  0.36836175  0.13063301    -0.06900
C990        C  0.78155272  0.38871289  0.12745746     0.14000
C991        C  0.81202938  0.38373791  0.14691121    -0.23700
H992        H  0.80169838  0.42941439  0.10205223     0.15300
H993        H  0.70595600  0.35856239  0.11294063     0.15300
C994        C  0.69711366  0.40384390  0.06716730    -0.23700
H995        H  0.83170381  0.40014633  0.13909348     0.05500
H996        H  0.82087523  0.35858197  0.14391212     0.08700
H997        H  0.80734473  0.38884795  0.17274100     0.08700
H998        H  0.70383122  0.40124257  0.04138977     0.08700
H999        H  0.68697169  0.42835452  0.07125995     0.08700
H1000       H  0.67791089  0.38597655  0.07256709     0.05500
C1001       C  0.78608848  0.58537793  0.89342060    -0.20300
C1002       C  0.75857356  0.58227101  0.91294208    -0.06900
C1003       C  0.73049211  0.60029703  0.90542065     0.14000
C1004       C  0.73076496  0.62145583  0.87892408    -0.20400
C1005       C  0.75824101  0.62463944  0.85910271    -0.06900
C1006       C  0.78635482  0.60613292  0.86658731     0.14000
C1007       C  0.81712545  0.60856324  0.84716180    -0.23700
H1008       H  0.80741960  0.57113951  0.89913124     0.15300
H1009       H  0.70921882  0.63549392  0.87355418     0.15300
C1010       C  0.69996240  0.59661958  0.92490357    -0.23700
H1011       H  0.83685177  0.59338401  0.85737954     0.05500
H1012       H  0.82571768  0.63389670  0.84690034     0.08700
H1013       H  0.81279281  0.60012687  0.82214336     0.08700
H1014       H  0.70440549  0.60384282  0.95026961     0.08700
H1015       H  0.69196826  0.57109459  0.92426420     0.08700
H1016       H  0.67997194  0.61188655  0.91535122     0.05500
C1017       C  0.25050198  0.38686314  0.91889862    -0.20300
C1018       C  0.22615446  0.41046031  0.91748166    -0.06900
C1019       C  0.20154423  0.40781267  0.89400712     0.14000
C1020       C  0.20318083  0.38277791  0.87117260    -0.20400
C1021       C  0.22855471  0.35988450  0.87141932    -0.06900
C1022       C  0.25199824  0.36150548  0.89651980     0.14000
C1023       C  0.27863047  0.33674627  0.90046169    -0.23700
H1024       H  0.26884397  0.38865709  0.93752687     0.15300
H1025       H  0.18478915  0.38159843  0.85257374     0.15300
C1026       C  0.17325083  0.43091666  0.89334260    -0.23700
H1027       H  0.29269189  0.34056638  0.92297378     0.05500
H1028       H  0.29600478  0.33836101  0.88016202     0.08700
H1029       H  0.26807802  0.31219273  0.90163578     0.08700
H1030       H  0.18156389  0.45582474  0.88860931     0.08700
H1031       H  0.16049618  0.43027280  0.91688031     0.08700
H1032       H  0.15557546  0.42453534  0.87420642     0.05500
C1033       C  0.29332637  0.62051010  0.10935261    -0.20300
C1034       C  0.26782215  0.62305004  0.13189385    -0.06900
C1035       C  0.24071662  0.60214998  0.12837101     0.14000
C1036       C  0.23990896  0.58019684  0.10273660    -0.20400
C1037       C  0.26503493  0.57823254  0.08030820    -0.06900
C1038       C  0.29218640  0.59841298  0.08361987     0.14000
C1039       C  0.31992718  0.59646905  0.06014460    -0.23700
H1040       H  0.31409937  0.63623288  0.11145198     0.15300
H1041       H  0.21927039  0.56436148  0.09989957     0.15300
C1042       C  0.21191190  0.60278472  0.15070899    -0.23700
H1043       H  0.33950091  0.61365264  0.06641964     0.05500
H1044       H  0.31127808  0.60232806  0.03549154     0.08700
H1045       H  0.33030783  0.57171596  0.06024979     0.08700
H1046       H  0.19978016  0.62663739  0.14921427     0.08700
H1047       H  0.21976499  0.59772193  0.17580844     0.08700
H1048       H  0.19356148  0.58438557  0.14419489     0.05500
C1049       C  0.38945331  0.12654287  0.79851622    -0.20300
C1050       C  0.37067445  0.12768705  0.77010964    -0.06900
C1051       C  0.37843691  0.10602394  0.74454871     0.14000
C1052       C  0.40407123  0.08411476  0.74848134    -0.20400
C1053       C  0.42221422  0.08297669  0.77693734    -0.06900
C1054       C  0.41500237  0.10448492  0.80226071     0.14000
C1055       C  0.43339607  0.10449638  0.83365079    -0.23700
H1056       H  0.38426542  0.14296924  0.81819738     0.15300
H1057       H  0.40986262  0.06723910  0.72932533     0.15300
C1058       C  0.36035448  0.10539768  0.71289865    -0.23700
H1059       H  0.44460650  0.12850013  0.83739148     0.05500
H1060       H  0.45290478  0.08607074  0.83449632     0.08700
H1061       H  0.41645327  0.09962452  0.85381878     0.08700
H1062       H  0.36272528  0.12897505  0.70047359     0.08700
H1063       H  0.33444725  0.09977141  0.71713150     0.08700
H1064       H  0.37000898  0.08667880  0.69626761     0.05500
C1065       C  0.59145979  0.90229222  0.72604766    -0.20300
C1066       C  0.57671546  0.90580458  0.75628016    -0.06900
C1067       C  0.58318065  0.88320776  0.78078975     0.14000
C1068       C  0.60474937  0.85779825  0.77472307    -0.20400
C1069       C  0.62068144  0.85462533  0.74487625    -0.06900
C1070       C  0.61357237  0.87708571  0.71999479     0.14000
C1071       C  0.62871817  0.87464083  0.68702144    -0.23700
H1072       H  0.58588713  0.91964268  0.70728359     0.15300
H1073       H  0.61024340  0.84109735  0.79408644     0.15300
C1074       C  0.56798690  0.88643886  0.81367242    -0.23700
H1075       H  0.61834506  0.89269813  0.67009218     0.05500
H1076       H  0.62436242  0.85030304  0.67677039     0.08700
H1077       H  0.65511146  0.87922262  0.68850214     0.08700
H1078       H  0.54123451  0.88500901  0.81163862     0.08700
H1079       H  0.57468441  0.90999936  0.82445584     0.08700
H1080       H  0.57619563  0.86705290  0.83029575     0.05500
C1081       C  0.39754037  0.75565852  0.85716021    -0.20300
C1082       C  0.37693193  0.72863272  0.85763647    -0.06900
C1083       C  0.38211742  0.70467265  0.88168171     0.14000
C1084       C  0.40706902  0.70890635  0.90445927    -0.20400
C1085       C  0.42654576  0.73652483  0.90433150    -0.06900
C1086       C  0.42169137  0.76017868  0.88043167     0.14000
C1087       C  0.44088534  0.79103306  0.88037458    -0.23700
H1088       H  0.39409179  0.77418238  0.83906967     0.15300
H1089       H  0.41077690  0.69109292  0.92323871     0.15300
C1090       C  0.36100560  0.67522572  0.88459633    -0.23700
H1091       H  0.43310318  0.80753133  0.86072142     0.05500
H1092       H  0.46698664  0.78569260  0.87690814     0.08700
H1093       H  0.43746103  0.80384525  0.90364243     0.08700
H1094       H  0.36260504  0.66059956  0.86223304     0.08700
H1095       H  0.33550452  0.68258169  0.88902298     0.08700
H1096       H  0.36858616  0.65953323  0.90497292     0.05500
C1097       C  0.14059795  0.59543183  0.74565797    -0.20300
C1098       C  0.14567100  0.61561351  0.71879628    -0.06900
C1099       C  0.12574554  0.61131781  0.69106315     0.14000
C1100       C  0.10069906  0.58854456  0.69191661    -0.20400
C1101       C  0.09484534  0.57004369  0.71944148    -0.06900
C1102       C  0.11545093  0.57290990  0.74639290     0.14000
C1103       C  0.11112485  0.55318415  0.77660062    -0.23700
H1104       H  0.15560657  0.59790000  0.76695634     0.15300
H1105       H  0.08498793  0.58557320  0.67118177     0.15300
C1106       C  0.12978343  0.63075220  0.66060174    -0.23700
H1107       H  0.13342333  0.53882724  0.78118469     0.05500
H1108       H  0.09049258  0.53625375  0.77517242     0.08700
H1109       H  0.10684931  0.56953847  0.79738724     0.08700
H1110       H  0.15482470  0.62790056  0.65126782     0.08700
H1111       H  0.12437390  0.65654343  0.66540814     0.08700
H1112       H  0.11297992  0.62278904  0.64127863     0.05500
C1113       C  0.23947894  0.87743099  0.61802897    -0.20300
C1114       C  0.26772655  0.85930819  0.62385968    -0.06900
C1115       C  0.29598747  0.86582581  0.60571199     0.14000
C1116       C  0.29523341  0.89053997  0.58248750    -0.20400
C1117       C  0.26713093  0.90898981  0.57743235    -0.06900
C1118       C  0.23893829  0.90233212  0.59527902     0.14000
C1119       C  0.20831702  0.92164794  0.59036249    -0.23700
H1120       H  0.21785856  0.87267132  0.63201844     0.15300
H1121       H  0.31664115  0.89568098  0.56832669     0.15300
C1122       C  0.32659480  0.84637067  0.61004043    -0.23700
H1123       H  0.18844404  0.91320064  0.60623470     0.05500
H1124       H  0.20010140  0.91940991  0.56498100     0.08700
H1125       H  0.21284939  0.94743155  0.59589855     0.08700
H1126       H  0.32139672  0.82036845  0.60641837     0.08700
H1127       H  0.33661493  0.85019443  0.63455312     0.08700
H1128       H  0.34552783  0.85348853  0.59245623     0.05500
C1129       C  0.26608161  0.61954009  0.88124552    -0.20300
C1130       C  0.23663155  0.62690978  0.86560678    -0.06900
C1131       C  0.20831224  0.60972685  0.87467347     0.14000
C1132       C  0.21047749  0.58603087  0.89882207    -0.20400
C1133       C  0.24001101  0.57878341  0.91382371    -0.06900
C1134       C  0.26812908  0.59560384  0.90493309     0.14000
C1135       C  0.30049114  0.58772903  0.91989920    -0.23700
H1136       H  0.28804084  0.63198856  0.87441635     0.15300
H1137       H  0.18905475  0.57284149  0.90599128     0.15300
C1138       C  0.17569569  0.61593779  0.85943184    -0.23700
H1139       H  0.32020900  0.60265411  0.90960329     0.05500
H1140       H  0.30654839  0.56197543  0.91552113     0.08700
H1141       H  0.29967138  0.59224665  0.94625071     0.08700
H1142       H  0.17630549  0.60930132  0.83351719     0.08700
H1143       H  0.16895495  0.64174456  0.86221028     0.08700
H1144       H  0.15634172  0.60135100  0.87084000     0.05500
C1145       C  0.36630084  0.89059412  0.74427178    -0.20300
C1146       C  0.35956635  0.87113627  0.77132313    -0.06900
C1147       C  0.37746395  0.87666114  0.80022837     0.14000
C1148       C  0.40205667  0.90002704  0.80051880    -0.20400
C1149       C  0.40935795  0.91809716  0.77304394    -0.06900
C1150       C  0.39088601  0.91386706  0.74481749     0.14000
C1151       C  0.39757353  0.93356924  0.71507275    -0.23700
H1152       H  0.35291201  0.88706587  0.72209412     0.15300
H1153       H  0.41617565  0.90392200  0.82220593     0.15300
C1154       C  0.37149572  0.85814665  0.83094184    -0.23700
H1155       H  0.38103359  0.92719360  0.69495562     0.05500
H1156       H  0.42282568  0.92932758  0.70689102     0.08700
H1157       H  0.39423217  0.95958756  0.72053549     0.08700
H1158       H  0.37753283  0.83228639  0.82742199     0.08700
H1159       H  0.34580874  0.86093512  0.83836662     0.08700
H1160       H  0.38676811  0.86697699  0.85112788     0.05500
C1161       C  0.10531854  0.75952365  0.40858738    -0.20300
C1162       C  0.08972591  0.73064345  0.41635963    -0.06900
C1163       C  0.10066160  0.70164979  0.40209105     0.14000
C1164       C  0.12651259  0.70238690  0.37989662    -0.20400
C1165       C  0.14238917  0.73136882  0.37192899    -0.06900
C1166       C  0.13159350  0.76040195  0.38705952     0.14000
C1167       C  0.14682478  0.79279024  0.38055853    -0.23700
H1168       H  0.09687783  0.78164117  0.41980638     0.15300
H1169       H  0.13429824  0.68006574  0.36866591     0.15300
C1170       C  0.08533127  0.66987550  0.41056340    -0.23700
H1171       H  0.13484386  0.81249667  0.39431447     0.05500
H1172       H  0.14469594  0.79888902  0.35458641     0.08700
H1173       H  0.17265993  0.79239644  0.38797539     0.08700
H1174       H  0.05935013  0.67003115  0.40381794     0.08700
H1175       H  0.08754256  0.66557729  0.43688800     0.08700
H1176       H  0.09715759  0.64944802  0.39776764     0.05500
C1177       C  0.86108504  0.77464173  0.59473362    -0.20300
C1178       C  0.85534922  0.74496186  0.60999537    -0.06900
C1179       C  0.87493791  0.71809986  0.60169691     0.14000
C1180       C  0.90155434  0.72246005  0.58094033    -0.20400
C1181       C  0.90858311  0.75277994  0.56758831    -0.06900
C1182       C  0.88727072  0.77891741  0.57367346     0.14000
C1183       C  0.89286568  0.81191924  0.55951011    -0.23700
H1184       H  0.84596293  0.79524409  0.60062984     0.15300
H1185       H  0.91730498  0.70220959  0.57543389     0.15300
C1186       C  0.86726524  0.68468867  0.61357468    -0.23700
H1187       H  0.87479765  0.82982526  0.56825917     0.05500
H1188       H  0.89072326  0.81087673  0.53287447     0.08700
H1189       H  0.91730523  0.82066862  0.56631103     0.08700
H1190       H  0.84233077  0.67811754  0.60610698     0.08700
H1191       H  0.86902244  0.68348896  0.64009040     0.08700
H1192       H  0.88423017  0.66640367  0.60353877     0.05500
C1193       C  0.08555467  0.77781644  0.59752991    -0.20300
C1194       C  0.07891773  0.74718796  0.58472577    -0.06900
C1195       C  0.09589254  0.72007149  0.59640346     0.14000
C1196       C  0.11975920  0.72435869  0.61991045    -0.20400
C1197       C  0.12739396  0.75507598  0.63233187    -0.06900
C1198       C  0.10964711  0.78219145  0.62116197     0.14000
C1199       C  0.11548012  0.81558343  0.63416411    -0.23700
H1200       H  0.07214563  0.79846526  0.58850319     0.15300
H1201       H  0.13313390  0.70329346  0.62795085     0.15300
C1202       C  0.08966068  0.68630330  0.58445265    -0.23700
H1203       H  0.09809602  0.83340051  0.62398553     0.05500
H1204       H  0.14021598  0.82368147  0.62774588     0.08700
H1205       H  0.11256601  0.81560339  0.66076870     0.08700
H1206       H  0.07015132  0.68512004  0.56614011     0.08700
H1207       H  0.08246934  0.67079771  0.60503157     0.08700
H1208       H  0.11212596  0.67632298  0.57355556     0.05500
C1209       C  0.62175146  0.73843659  0.11515600    -0.20300
C1210       C  0.62813094  0.76701665  0.13236613    -0.06900
C1211       C  0.60980399  0.79518185  0.12467575     0.14000
C1212       C  0.58637006  0.79383725  0.10004835    -0.20400
C1213       C  0.58031079  0.76521788  0.08320196    -0.06900
C1214       C  0.59802764  0.73710438  0.09102710     0.14000
C1215       C  0.59225761  0.70512646  0.07471173    -0.23700
H1216       H  0.63492971  0.71650606  0.12091475     0.15300
H1217       H  0.57260601  0.81526973  0.09378562     0.15300
C1218       C  0.61462504  0.82688311  0.14181588    -0.23700
H1219       H  0.58517947  0.68697458  0.09304143     0.05500
H1220       H  0.61487909  0.69691910  0.06273095     0.08700
H1221       H  0.57283237  0.70610093  0.05628991     0.08700
H1222       H  0.64023734  0.83458433  0.13959074     0.08700
H1223       H  0.60795630  0.82447405  0.16759767     0.08700
H1224       H  0.59917658  0.84632442  0.13151787     0.05500
C1225       C  0.88503395  0.63578540  0.20175119    -0.20300
C1226       C  0.87735602  0.65150882  0.23088877    -0.06900
C1227       C  0.89102415  0.63952812  0.26005974     0.14000
C1228       C  0.91118533  0.61223643  0.25912398    -0.20400
C1229       C  0.91850327  0.59667847  0.23008534    -0.06900
C1230       C  0.90552136  0.60868265  0.20096617     0.14000
C1231       C  0.91258631  0.59336651  0.16877265    -0.23700
H1232       H  0.87465030  0.64441495  0.17932678     0.15300
H1233       H  0.92161327  0.60292234  0.28126087     0.15300
C1234       C  0.88397900  0.65436381  0.29256699    -0.23700
H1235       H  0.88956193  0.58536564  0.15754296     0.05500
H1236       H  0.92888839  0.57212810  0.17059332     0.08700
H1237       H  0.92426314  0.61130233  0.15273414     0.08700
H1238       H  0.85757124  0.65368196  0.29751521     0.08700
H1239       H  0.89275943  0.67961777  0.29319846     0.08700
H1240       H  0.89632288  0.64120105  0.31243604     0.05500
C1241       C  0.72276871  0.88888078  0.37755061    -0.20300
C1242       C  0.75368325  0.87851336  0.36729152    -0.06900
C1243       C  0.78137762  0.89381338  0.38062299     0.14000
C1244       C  0.77733824  0.91704541  0.40505535    -0.20400
C1245       C  0.74648466  0.92611054  0.41585077    -0.06900
C1246       C  0.71888814  0.91263609  0.40128237     0.14000
C1247       C  0.68530100  0.92334237  0.41082690    -0.23700
H1248       H  0.70126726  0.87796177  0.36743141     0.15300
H1249       H  0.79835038  0.92837580  0.41579463     0.15300
C1250       C  0.81518186  0.88659543  0.36904232    -0.23700
H1251       H  0.66633702  0.91057293  0.39682738     0.05500
H1252       H  0.68249170  0.94960869  0.40635265     0.08700
H1253       H  0.68120029  0.91839434  0.43678373     0.08700
H1254       H  0.81665403  0.89025637  0.34257476     0.08700
H1255       H  0.82181896  0.86150477  0.37518495     0.08700
H1256       H  0.83336644  0.90254876  0.38056875     0.05500
C1257       C  0.71663895  0.62980310  0.11080977    -0.20300
C1258       C  0.74221956  0.63319608  0.13309269    -0.06900
C1259       C  0.76975952  0.61252864  0.12969109     0.14000
C1260       C  0.77086265  0.59006559  0.10427753    -0.20400
C1261       C  0.74549246  0.58721215  0.08204525    -0.06900
C1262       C  0.71787084  0.60715275  0.08554569     0.14000
C1263       C  0.68906850  0.60491299  0.06334454    -0.23700
H1264       H  0.69543527  0.64518609  0.11278394     0.15300
H1265       H  0.79173894  0.57430988  0.10171246     0.15300
C1266       C  0.79824311  0.61334398  0.15253882    -0.23700
H1267       H  0.68522849  0.62846338  0.05116210     0.05500
H1268       H  0.66714130  0.59900177  0.07760144     0.08700
H1269       H  0.69192288  0.58617046  0.04450188     0.08700
H1270       H  0.78986796  0.60935994  0.17764304     0.08700
H1271       H  0.81093432  0.63679274  0.15061543     0.08700
H1272       H  0.81636149  0.59424532  0.14697687     0.05500
C1273       C  0.88031318  0.71600585  0.38139289    -0.20300
C1274       C  0.86621440  0.74539655  0.37152600    -0.06900
C1275       C  0.87816039  0.77457510  0.38493455     0.14000
C1276       C  0.90386212  0.77350171  0.40688164    -0.20400
C1277       C  0.91826244  0.74432276  0.41612537    -0.06900
C1278       C  0.90590085  0.71507696  0.40380242     0.14000
C1279       C  0.91876778  0.68261262  0.41406076    -0.23700
H1280       H  0.87136393  0.69351908  0.37154381     0.15300
H1281       H  0.91346839  0.79587140  0.41639467     0.15300
C1282       C  0.86501950  0.80727317  0.37572770    -0.23700
H1283       H  0.89873904  0.66811696  0.42434778     0.05500
H1284       H  0.93796652  0.68432636  0.43265294     0.08700
H1285       H  0.92884558  0.66975107  0.39280990     0.08700
H1286       H  0.83933560  0.80907778  0.38331672     0.08700
H1287       H  0.86721022  0.81095637  0.34931138     0.08700
H1288       H  0.87825600  0.82720392  0.38775833     0.05500
C1289       C  0.38572280  0.87720242  0.28738472    -0.20300
C1290       C  0.38048724  0.85946190  0.25881412    -0.06900
C1291       C  0.39818646  0.86833091  0.23075601     0.14000
C1292       C  0.41830663  0.89547974  0.23172515    -0.20400
C1293       C  0.42206617  0.91408593  0.25975651    -0.06900
C1294       C  0.40659805  0.90392458  0.28835529     0.14000
C1295       C  0.41205887  0.92007635  0.32042676    -0.23700
H1296       H  0.37317924  0.87046424  0.30929255     0.15300
H1297       H  0.43073839  0.90280783  0.20993474     0.15300
C1298       C  0.39598526  0.85017223  0.19923713    -0.23700
H1299       H  0.42093489  0.90196003  0.33809361     0.05500
H1300       H  0.38888872  0.93044481  0.32932069     0.08700
H1301       H  0.43030872  0.93952919  0.31933260     0.08700
H1302       H  0.37113755  0.85210758  0.18918558     0.08700
H1303       H  0.40270171  0.82448083  0.20297889     0.08700
H1304       H  0.41271239  0.85996888  0.18074806     0.05500
C1305       C  0.60602510  0.08914982  0.28197668    -0.20300
C1306       C  0.58925312  0.08004398  0.25418554    -0.06900
C1307       C  0.59696826  0.09496247  0.22443725     0.14000
C1308       C  0.62121726  0.11873472  0.22344895    -0.20400
C1309       C  0.63850702  0.12744110  0.25127934    -0.06900
C1310       C  0.63047600  0.11248437  0.28099634     0.14000
C1311       C  0.64643037  0.12190709  0.31226079    -0.23700
H1312       H  0.59971113  0.07793971  0.30471619     0.15300
H1313       H  0.62677250  0.13039147  0.20074194     0.15300
C1314       C  0.58002161  0.08650132  0.19341176    -0.23700
H1315       H  0.63511692  0.10963100  0.33311698     0.05500
H1316       H  0.64397358  0.14830340  0.31617569     0.08700
H1317       H  0.67239470  0.11491762  0.31186001     0.08700
H1318       H  0.56746286  0.10820802  0.18381210     0.08700
H1319       H  0.56185817  0.06714140  0.19637273     0.08700
H1320       H  0.59812050  0.07811372  0.17545264     0.05500
C1321       C  0.59544244  0.85675814  0.24735471    -0.20300
C1322       C  0.61411547  0.85479652  0.27565144    -0.06900
C1323       C  0.60968102  0.87901076  0.29960580     0.14000
C1324       C  0.58921974  0.90555949  0.29307087    -0.20400
C1325       C  0.57335366  0.90891634  0.26326686    -0.06900
C1326       C  0.57572337  0.88345610  0.24056331     0.14000
C1327       C  0.55941096  0.88487576  0.20800510    -0.23700
H1328       H  0.59774689  0.83813826  0.22916549     0.15300
H1329       H  0.58653587  0.92451362  0.31088746     0.15300
C1330       C  0.62673427  0.87783367  0.33175206    -0.23700
H1331       H  0.56617303  0.86406687  0.19251013     0.05500
H1332       H  0.56664757  0.90717769  0.19513709     0.08700
H1333       H  0.53272946  0.88419832  0.21090219     0.08700
H1334       H  0.65320545  0.88072539  0.32840749     0.08700
H1335       H  0.62157714  0.85458853  0.34394479     0.08700
H1336       H  0.61853504  0.89755064  0.34799410     0.05500
C1337       C  0.60571442  0.29402409  0.92292310    -0.20300
C1338       C  0.58422025  0.26829305  0.92633932    -0.06900
C1339       C  0.58641390  0.24181631  0.90506455     0.14000
C1340       C  0.60995696  0.24178342  0.88067440    -0.20400
C1341       C  0.63177942  0.26753683  0.87686377    -0.06900
C1342       C  0.62955092  0.29408719  0.89868879     0.14000
C1343       C  0.65214353  0.32255191  0.89733729    -0.23700
H1344       H  0.60361075  0.31430389  0.93930653     0.15300
H1345       H  0.61133415  0.22122587  0.86459192     0.15300
C1346       C  0.56412427  0.21331143  0.90836240    -0.23700
H1347       H  0.64675865  0.34052088  0.91649342     0.05500
H1348       H  0.64961982  0.33508899  0.87382869     0.08700
H1349       H  0.67752706  0.31435098  0.90091006     0.08700
H1350       H  0.53862386  0.22101396  0.90465928     0.08700
H1351       H  0.56672290  0.20269081  0.93279802     0.08700
H1352       H  0.56970774  0.19421106  0.89039273     0.05500
C1353       C  0.87752384  0.37798365  0.70119059    -0.20300
C1354       C  0.85959535  0.37557467  0.73003173    -0.06900
C1355       C  0.86621963  0.39808128  0.75515384     0.14000
C1356       C  0.89074710  0.42111430  0.75100349    -0.20400
C1357       C  0.90926552  0.42230892  0.72280731    -0.06900
C1358       C  0.90226663  0.40083726  0.69738797     0.14000
C1359       C  0.92097259  0.40196359  0.66623834    -0.23700
H1360       H  0.87290664  0.36126995  0.68166064     0.15300
H1361       H  0.89634852  0.43775055  0.77037298     0.15300
C1362       C  0.84857406  0.39779357  0.78690991    -0.23700
H1363       H  0.91190457  0.38402175  0.64854988     0.05500
H1364       H  0.94692746  0.39660992  0.67073793     0.08700
H1365       H  0.91864828  0.42631663  0.65533702     0.08700
H1366       H  0.85379988  0.37481526  0.79955510     0.08700
H1367       H  0.82213399  0.40068044  0.78289335     0.08700
H1368       H  0.85645017  0.41766483  0.80304215     0.05500
C1369       C  0.75046926  0.13126451  0.61402544    -0.20300
C1370       C  0.72226720  0.13992864  0.63113295    -0.06900
C1371       C  0.69264283  0.12436815  0.62328443     0.14000
C1372       C  0.69262143  0.09971236  0.60002546    -0.20400
C1373       C  0.72114267  0.09048813  0.58427841    -0.06900
C1374       C  0.75021572  0.10685861  0.59074394     0.14000
C1375       C  0.78107942  0.09833290  0.57321060    -0.23700
H1376       H  0.77324258  0.14295326  0.61945424     0.15300
H1377       H  0.67031004  0.08734029  0.59416666     0.15300
C1378       C  0.66086417  0.13349023  0.63878206    -0.23700
H1379       H  0.80162245  0.11368879  0.58099092     0.05500
H1380       H  0.77762974  0.10173511  0.54688246     0.08700
H1381       H  0.78772916  0.07281724  0.57800487     0.08700
H1382       H  0.65635640  0.15974113  0.63576853     0.08700
H1383       H  0.66114145  0.12710763  0.66475012     0.08700
H1384       H  0.64019753  0.12050936  0.62767087     0.05500
C1385       C  0.79864780  0.40286023  0.90953635    -0.20300
C1386       C  0.76871332  0.41407693  0.92090766    -0.06900
C1387       C  0.74006777  0.39827133  0.91173353     0.14000
C1388       C  0.74182586  0.37243743  0.89010303    -0.20400
C1389       C  0.77165139  0.36160374  0.87751712    -0.06900
C1390       C  0.80058862  0.37656320  0.88820180     0.14000
C1391       C  0.83356295  0.36461579  0.87817178    -0.23700
H1392       H  0.82056477  0.41463614  0.91767146     0.15300
H1393       H  0.71947412  0.36123713  0.88237007     0.15300
C1394       C  0.70760192  0.40878457  0.92473004    -0.23700
H1395       H  0.85324454  0.37755907  0.89097447     0.05500
H1396       H  0.83713969  0.36862584  0.85209548     0.08700
H1397       H  0.83598489  0.33853298  0.88378019     0.08700
H1398       H  0.70271718  0.43421898  0.91787353     0.08700
H1399       H  0.70751667  0.40670275  0.95141237     0.08700
H1400       H  0.68760167  0.39373306  0.91515156     0.05500
C1401       C  0.63380284  0.10363516  0.75083452    -0.20300
C1402       C  0.63945551  0.12169151  0.77914212    -0.06900
C1403       C  0.62120294  0.11388506  0.80717186     0.14000
C1404       C  0.59779981  0.08928208  0.80564207    -0.20400
C1405       C  0.59164539  0.07239323  0.77701277    -0.06900
C1406       C  0.61003294  0.07959135  0.74928283     0.14000
C1407       C  0.60449101  0.06325072  0.71728151    -0.23700
H1408       H  0.64721919  0.10898500  0.72905481     0.15300
H1409       H  0.58351297  0.08363413  0.82679482     0.15300
C1410       C  0.62544303  0.13142553  0.83873704    -0.23700
H1411       H  0.59798467  0.08164368  0.69890309     0.05500
H1412       H  0.62704755  0.05075432  0.70961582     0.08700
H1413       H  0.58477692  0.04524478  0.71791721     0.08700
H1414       H  0.61864711  0.15720688  0.83591763     0.08700
H1415       H  0.65094405  0.12926568  0.84698425     0.08700
H1416       H  0.60981094  0.12130696  0.85798358     0.05500
C1417       C  0.37491048  0.21490965  0.11900670    -0.20300
C1418       C  0.35207911  0.23992194  0.12348593    -0.06900
C1419       C  0.35433862  0.26776126  0.10333554     0.14000
C1420       C  0.37967610  0.27005375  0.08084546    -0.20400
C1421       C  0.40300184  0.24570005  0.07767076    -0.06900
C1422       C  0.40022465  0.21748858  0.09644450     0.14000
C1423       C  0.42400766  0.19009432  0.09264962    -0.23700
H1424       H  0.37351734  0.19342638  0.13378468     0.15300
H1425       H  0.38190157  0.29148905  0.06606176     0.15300
C1426       C  0.33109992  0.29589945  0.10554379    -0.23700
H1427       H  0.41798891  0.16947165  0.10859921     0.05500
H1428       H  0.44877791  0.19828508  0.09885862     0.08700
H1429       H  0.42372898  0.18141537  0.06732713     0.08700
H1430       H  0.33278892  0.30727583  0.12970507     0.08700
H1431       H  0.30599309  0.28766689  0.10084699     0.08700
H1432       H  0.33659162  0.31492019  0.08753175     0.05500
C1433       C  0.11638657  0.38547465  0.27151917    -0.20300
C1434       C  0.11836478  0.36407014  0.24526245    -0.06900
C1435       C  0.09694200  0.36834429  0.21890484     0.14000
C1436       C  0.07451201  0.39400258  0.21945865    -0.20400
C1437       C  0.07340318  0.41583051  0.24529135    -0.06900
C1438       C  0.09447207  0.41140231  0.27175974     0.14000
C1439       C  0.09476904  0.43375591  0.30043345    -0.23700
H1440       H  0.13290256  0.38266644  0.29167269     0.15300
H1441       H  0.05811484  0.39750140  0.19932945     0.15300
C1442       C  0.09717178  0.34579689  0.19041444    -0.23700
H1443       H  0.08980154  0.41977377  0.32269120     0.05500
H1444       H  0.07642718  0.45328239  0.29878926     0.08700
H1445       H  0.11898403  0.44508949  0.30257953     0.08700
H1446       H  0.09385618  0.32059104  0.19876688     0.08700
H1447       H  0.12037999  0.34783432  0.17715183     0.08700
H1448       H  0.07737917  0.35153221  0.17316734     0.05500
C1449       C  0.21718752  0.09094658  0.40496060    -0.20300
C1450       C  0.24763882  0.08185085  0.41684943    -0.06900
C1451       C  0.27568389  0.09700309  0.40511988     0.14000
C1452       C  0.27266888  0.12119843  0.38176938    -0.20400
C1453       C  0.24217504  0.13097345  0.36998154    -0.06900
C1454       C  0.21398624  0.11546564  0.38176535     0.14000
C1455       C  0.18058502  0.12384312  0.36963072    -0.23700
H1456       H  0.19586451  0.07878520  0.41399625     0.15300
H1457       H  0.29437223  0.13299172  0.37315712     0.15300
C1458       C  0.30879239  0.08758452  0.41731582    -0.23700
H1459       H  0.16186703  0.10772058  0.37996470     0.05500
H1460       H  0.17973851  0.12137116  0.34299368     0.08700
H1461       H  0.17411376  0.14883667  0.37665507     0.08700
H1462       H  0.31346355  0.06170174  0.41216876     0.08700
H1463       H  0.31014902  0.09168113  0.44373254     0.08700
H1464       H  0.32821158  0.10188373  0.40566067     0.05500
C1465       C  0.21767543  0.41152667  0.10398520    -0.20300
C1466       C  0.24379914  0.41384590  0.08272203    -0.06900
C1467       C  0.27128087  0.39418038  0.08726224     0.14000
C1468       C  0.27231149  0.37282931  0.11343367    -0.20400
C1469       C  0.24624813  0.37015237  0.13518414    -0.06900
C1470       C  0.21820601  0.38977080  0.12996238     0.14000
C1471       C  0.18846239  0.38815979  0.15104027    -0.23700
H1472       H  0.19675949  0.42696828  0.10015941     0.15300
H1473       H  0.29368189  0.35794254  0.11663496     0.15300
C1474       C  0.29960881  0.39593166  0.06447026    -0.23700
H1475       H  0.16940809  0.40546460  0.14319283     0.05500
H1476       H  0.19484017  0.39426238  0.17630975     0.08700
H1477       H  0.17775720  0.36368272  0.14981301     0.08700
H1478       H  0.30982000  0.42064933  0.06462824     0.08700
H1479       H  0.29151421  0.38991176  0.03966560     0.08700
H1480       H  0.31918625  0.37878362  0.07130053     0.05500
C1481       C  0.41158668  0.10158539  0.29601578    -0.20300
C1482       C  0.41949011  0.08616989  0.26695731    -0.06900
C1483       C  0.40533594  0.09742071  0.23802335     0.14000
C1484       C  0.38379895  0.12376776  0.23885131    -0.20400
C1485       C  0.37518475  0.13912132  0.26793638    -0.06900
C1486       C  0.38942647  0.12759589  0.29704410     0.14000
C1487       C  0.38194906  0.14259658  0.32932356    -0.23700
H1488       H  0.42277770  0.09304080  0.31807977     0.15300
H1489       H  0.37290751  0.13173187  0.21642396     0.15300
C1490       C  0.41233200  0.08210755  0.20578314    -0.23700
H1491       H  0.39701505  0.13199676  0.34886012     0.05500
H1492       H  0.35625948  0.13835618  0.33581520     0.08700
H1493       H  0.38687370  0.16888565  0.32853212     0.08700
H1494       H  0.42935419  0.06142208  0.20731799     0.08700
H1495       H  0.42305486  0.10032686  0.18940239     0.08700
H1496       H  0.38939801  0.07322662  0.19506131     0.05500
C1497       C  0.89317800  0.27641078  0.37396410    -0.20300
C1498       C  0.87957264  0.24741906  0.36286102    -0.06900
C1499       C  0.89040217  0.21795255  0.37644206     0.14000
C1500       C  0.91357428  0.21840515  0.40140621    -0.20400
C1501       C  0.92614644  0.24754407  0.41318805    -0.06900
C1502       C  0.91602898  0.27689673  0.39903432     0.14000
C1503       C  0.92809069  0.30922251  0.41040565    -0.23700
H1504       H  0.88498675  0.29913646  0.36382430     0.15300
H1505       H  0.92162590  0.19593852  0.41217267     0.15300
C1506       C  0.87819408  0.18602834  0.36429902    -0.23700
H1507       H  0.90730364  0.32400991  0.41893367     0.05500
H1508       H  0.94000701  0.32190510  0.39008780     0.08700
H1509       H  0.94578046  0.30740018  0.43042431     0.08700
H1510       H  0.88275010  0.18398608  0.33800184     0.08700
H1511       H  0.85190567  0.18398483  0.36901331     0.08700
H1512       H  0.89044551  0.16544860  0.37644690     0.05500
C1513       C  0.09686034  0.19689721  0.59488045    -0.20300
C1514       C  0.07510835  0.22293627  0.59562124    -0.06900
C1515       C  0.07469055  0.24368862  0.62256929     0.14000
C1516       C  0.09703436  0.23871188  0.64744026    -0.20400
C1517       C  0.12068940  0.21414768  0.64587983    -0.06900
C1518       C  0.11976531  0.19216806  0.61957753     0.14000
C1519       C  0.14330182  0.16443465  0.61643123    -0.23700
H1520       H  0.09646565  0.18075156  0.57432225     0.15300
H1521       H  0.09691095  0.25543908  0.66754027     0.15300
C1522       C  0.05191339  0.27211519  0.62538667    -0.23700
H1523       H  0.13848802  0.14972897  0.59457289     0.05500
H1524       H  0.14112608  0.14829378  0.63765159     0.08700
H1525       H  0.16842626  0.17362955  0.61449340     0.08700
H1526       H  0.03653481  0.26920152  0.64712257     0.08700
H1527       H  0.03574594  0.27502391  0.60426492     0.08700
H1528       H  0.06616236  0.29463262  0.62784646     0.05500
C1529       C  0.91005941  0.25662678  0.60153024    -0.20300
C1530       C  0.91067527  0.22963339  0.58126422    -0.06900
C1531       C  0.88903112  0.20407651  0.58703302     0.14000
C1532       C  0.86717069  0.20629404  0.61291947    -0.20400
C1533       C  0.86615049  0.23347957  0.63342294    -0.06900
C1534       C  0.88819190  0.25914647  0.62734463     0.14000
C1535       C  0.88931142  0.28946329  0.64751214    -0.23700
H1536       H  0.92712766  0.27591837  0.59709067     0.15300
H1537       H  0.85057698  0.18650606  0.61681936     0.15300
C1538       C  0.88860455  0.17403911  0.56660100    -0.23700
H1539       H  0.90869512  0.30612004  0.63949313     0.05500
H1540       H  0.89430651  0.28326856  0.67307492     0.08700
H1541       H  0.86604818  0.30283275  0.64546710     0.08700
H1542       H  0.89377811  0.15269589  0.58195142     0.08700
H1543       H  0.90674700  0.17449480  0.54693497     0.08700
H1544       H  0.86429391  0.17124182  0.55551915     0.05500
C1545       C  0.12206545  0.29688332  0.39279222    -0.20300
C1546       C  0.14518690  0.27182542  0.39013917    -0.06900
C1547       C  0.14408978  0.24633071  0.41311218     0.14000
C1548       C  0.11813767  0.24472592  0.43489807    -0.20400
C1549       C  0.09371210  0.26828495  0.43553327    -0.06900
C1550       C  0.09666258  0.29559451  0.41542428     0.14000
C1551       C  0.07318995  0.32342209  0.41793667    -0.23700
H1552       H  0.12305854  0.31712233  0.37632324     0.15300
H1553       H  0.11634982  0.22432148  0.45112629     0.15300
C1554       C  0.16971087  0.22033434  0.41510383    -0.23700
H1555       H  0.07965916  0.34332213  0.40126238     0.05500
H1556       H  0.07344230  0.33310023  0.44289479     0.08700
H1557       H  0.04832398  0.31549814  0.41187476     0.08700
H1558       H  0.19403581  0.23145324  0.41715302     0.08700
H1559       H  0.16855404  0.20452995  0.39360034     0.08700
H1560       H  0.16632322  0.20460802  0.43650015     0.05500
loop_ 
_geom_bond_atom_site_label_1 
_geom_bond_atom_site_label_2 
_geom_bond_distance 
_geom_bond_site_symmetry_2 
_ccdc_geom_bond_type 
N1            C6   1.350       .  A
N1            C5   1.351   1_655  A
N1           H33   1.038       .  S
N2            C9   1.352       .  A
N2           C10   1.352       .  A
N3            C8   1.357   1_455  A
N3            C7   1.357       .  A
N3           H34   1.038       .  S
N4           C11   1.354       .  A
N4           C12   1.351       .  A
C5           C13   1.388       .  A
C5           C21   1.412       .  A
C6           C22   1.409       .  A
C6           C14   1.385       .  A
C7           C15   1.387       .  A
C7           C24   1.423       .  A
C8           C23   1.421       .  A
C8           C16   1.387       .  A
C9           C21   1.414       .  A
C9           C17   1.386       .  A
C10          C24   1.416       .  A
C10          C18   1.387       .  A
C11          C19   1.384       .  A
C11          C22   1.415       .  A
C12          C20   1.387       .  A
C12          C23   1.416       .  A
C13          C14   1.375   1_455  A
C13          H25   1.082       .  S
C14          H26   1.082       .  S
C15          C16   1.378   1_455  A
C15          H27   1.082       .  S
C16          H28   1.082       .  S
C17          C18   1.375       .  A
C17          H29   1.082       .  S
C18          H30   1.082       .  S
C19          C20   1.377       .  A
C19          H31   1.082       .  S
C20          H32   1.082       .  S
C21        C1514   1.486       .  S
C22        C1530   1.490       .  S
C23        C1501   1.494       .  S
C24        C1549   1.500       .  S
O35         Mg37   2.162       .  S
O35         Mg43   2.150       .  S
O35          C70   1.234       .  S
C36          H75   1.081       .  S
C36          O49   1.234       .  S
C36          O73   1.269       .  A
Mg37         O66   2.172       .  S
Mg37         O81   2.282       .  S
Mg37         O77   2.269       .  S
Mg37         O48   2.284       .  S
O38         Mg80   2.167       .  S
O38         Mg63   2.164       .  S
O38          C59   1.237       .  S
O39          C70   1.271       .  A
O39         Mg63   2.314       .  S
C40        C1546   1.503       .  S
C40          O42   1.276       .  A
C40          O54   1.275       .  A
O41          C69   1.271       .  A
O41         Mg43   2.301       .  S
O42         Mg74   2.290       .  S
Mg43         O49   2.164       .  S
Mg43         O57   2.276       .  S
Mg43         O45   2.300       .  S
C44        C1453   1.487       .  S
C44          O82   1.270       .  A
C44          O50   1.274       .  A
O45          C52   1.272       .  A
H46          C59   1.081       .  S
C47          H72   1.081       .  S
C47          O61   1.235       .  S
C47          O62   1.270       .  A
O48          C71   1.266       .  A
O49         Mg63   2.155       .  S
O50         Mg80   2.290       .  S
C51        C1485   1.503       .  S
C51          O64   1.271       .  A
C51          O56   1.281       .  A
C52        C1418   1.504       .  S
C52          O79   1.277       .  A
Mg53         O60   2.130       .  S
Mg53         O61   2.159       .  S
Mg53         O54   2.306       .  S
Mg53         O55   2.307       .  S
Mg53         O82   2.263       .  S
O55          C59   1.272       .  A
O56         Mg63   2.343       .  S
O57          C76   1.273       .  A
O58          C78   1.277       .  A
O58         Mg74   2.309       .  S
O60         Mg74   2.159       .  S
O60          C71   1.233       .  S
O61         Mg80   2.160       .  S
O62         Mg74   2.301       .  S
Mg63         O79   2.301       .  S
O64         Mg80   2.271       .  S
H65          C70   1.081       .  S
O66         Mg74   2.151       .  S
O66          C69   1.236       .  S
H67          C69   1.081       .  S
H68          C71   1.081       .  S
O73         Mg80   2.303       .  S
C76        C1469   1.498       .  S
C76          O81   1.269       .  A
O77          C78   1.272       .  A
C78        C1434   1.487       .  S
O83         Mg85   2.148       .  S
O83         Mg91   2.155       .  S
O83         C118   1.236       .  S
C84         H123   1.081       .  S
C84          O97   1.235       .  S
C84         O121   1.270       .  A
Mg85        O114   2.163       .  S
Mg85        O129   2.298       .  S
Mg85        O125   2.273       .  S
Mg85         O96   2.297       .  S
O86        Mg128   2.158       .  S
O86        Mg111   2.137       .  S
O86         C107   1.235       .  S
O87         C118   1.271       .  A
O87        Mg111   2.303       .  S
C88        C1389   1.489       .  S
C88          O90   1.271       .  A
C88         O102   1.274       .  A
O89         C117   1.270       .  A
O89         Mg91   2.300       .  S
O90        Mg122   2.269       .  S
Mg91         O97   2.161       .  S
Mg91        O105   2.285       .  S
Mg91         O93   2.296       .  S
C92        C1341   1.501       .  S
C92         O130   1.270       .  A
C92          O98   1.278       .  A
O93         C100   1.275       .  A
H94         C107   1.081       .  S
C95         H120   1.081       .  S
C95         O109   1.236       .  S
C95         O110   1.271       .  A
O96         C119   1.268       .  A
O97        Mg111   2.158       .  S
O98        Mg128   2.321       .  S
C99        C1402   1.505       .  S
C99         O112   1.274       .  A
C99         O104   1.277       .  A
C100       C1370   1.491       .  S
C100        O127   1.269       .  A
Mg101       O108   2.151       .  S
Mg101       O109   2.158       .  S
Mg101       O102   2.285       .  S
Mg101       O103   2.291       .  S
Mg101       O130   2.260       .  S
O103        C107   1.268       .  A
O104       Mg111   2.309       .  S
O105        C124   1.274       .  A
O106        C126   1.275       .  A
O106       Mg122   2.313       .  S
O108       Mg122   2.154       .  S
O108        C119   1.234       .  S
O109       Mg128   2.152       .  S
O110       Mg122   2.305       .  S
Mg111       O127   2.252       .  S
O112       Mg128   2.288       .  S
H113        C118   1.081       .  S
O114       Mg122   2.146       .  S
O114        C117   1.235       .  S
H115        C117   1.081       .  S
H116        C119   1.081       .  S
O121       Mg128   2.303       .  S
C124       C1533   1.502       .  S
C124        O129   1.273       .  A
O125        C126   1.274       .  A
C126       C1354   1.503       .  S
N131        C136   1.361       .  A
N131        C135   1.362       .  A
N131        H163   1.038       .  S
N132        C139   1.341   1_565  A
N132        C140   1.351       .  A
N133        C138   1.349       .  A
N133        C137   1.348       .  A
N133        H164   1.045       .  S
N134        C141   1.346       .  A
N134        C142   1.354   1_545  A
C135        C143   1.387       .  A
C135        C151   1.430       .  A
C136        C152   1.429       .  A
C136        C144   1.387       .  A
C137        C145   1.386       .  A
C137        C154   1.398       .  A
C138        C153   1.396       .  A
C138        C146   1.384       .  A
C139        C151   1.417       .  A
C139        C147   1.392       .  A
C140        C154   1.413       .  A
C140        C148   1.383       .  A
C141        C149   1.391       .  A
C141        C152   1.421       .  A
C142        C150   1.382       .  A
C142        C153   1.416       .  A
C143        C144   1.375       .  A
C143        H155   1.082       .  S
C144        H156   1.082       .  S
C145        C146   1.366       .  A
C145        H157   1.083       .  S
C146        H158   1.083       .  S
C147        C148   1.385   1_545  A
C147        H159   1.082       .  S
C148        H160   1.082       .  S
C149        C150   1.385   1_545  A
C149        H161   1.082       .  S
C150        H162   1.082       .  S
C151       C1306   1.494       .  S
C152       C1482   1.497       .  S
C153       C1293   1.493       .  S
C154       C1325   1.496       .  S
O165       Mg167   2.142       .  S
O165       Mg173   2.143       .  S
O165        C200   1.234       .  S
C166        H205   1.081       .  S
C166        O179   1.236       .  S
C166        O203   1.270       .  A
Mg167       O196   2.151       .  S
Mg167       O211   2.304       .  S
Mg167       O207   2.261       .  S
Mg167       O178   2.303       .  S
O168       Mg210   2.148       .  S
O168       Mg193   2.145       .  S
O168        C189   1.236       .  S
O169        C200   1.268       .  A
O169       Mg193   2.295       .  S
C170       C1258   1.505       .  S
C170        O172   1.276       .  A
C170        O184   1.272       .  A
O171        C199   1.273       .  A
O171       Mg173   2.313       .  S
O172       Mg204   2.300       .  S
Mg173       O179   2.140       .  S
Mg173       O187   2.265       .  S
Mg173       O175   2.294       .  S
C174       C1226   1.491       .  S
C174        O212   1.271       .  A
C174        O180   1.271       .  A
O175        C182   1.274       .  A
H176        C189   1.081       .  S
C177        H202   1.081       .  S
C177        O191   1.234       .  S
C177        O192   1.269       .  A
O178        C201   1.271       .  A
O179       Mg193   2.165       .  S
O180       Mg210   2.296       .  S
C181       C1274   1.492       .  S
C181        O194   1.273       .  A
C181        O186   1.273       .  A
C182       C1242   1.497       .  S
C182        O209   1.272       .  A
Mg183       O190   2.153       .  S
Mg183       O191   2.149       .  S
Mg183       O184   2.296       .  S
Mg183       O185   2.307       .  S
Mg183       O212   2.263       .  S
O185        C189   1.271       .  A
O186       Mg193   2.292       .  S
O187        C206   1.268       .  A
O188        C208   1.277       .  A
O188       Mg204   2.314       .  S
O190       Mg204   2.169       .  S
O190        C201   1.236       .  S
O191       Mg210   2.160       .  S
O192       Mg204   2.304       .  S
Mg193       O209   2.282       .  S
O194       Mg210   2.276       .  S
H195        C200   1.081       .  S
O196       Mg204   2.162       .  S
O196        C199   1.237       .  S
H197        C199   1.081       .  S
H198        C201   1.081       .  S
O203       Mg210   2.298       .  S
C206       C1322   1.498       .  S
C206        O211   1.276       .  A
O207        C208   1.270       .  A
C208       C1210   1.498       .  S
N213        C218   1.350       .  A
N213        C217   1.350       .  A
N213        H245   1.045       .  S
N214        C221   1.349   1_455  A
N214        C222   1.345       .  A
N215        C220   1.358       .  A
N215        C219   1.362       .  A
N215        H246   1.039       .  S
N216        C223   1.353       .  A
N216        C224   1.343   1_655  A
C217        C225   1.383       .  A
C217        C233   1.399       .  A
C218        C234   1.399       .  A
C218        C226   1.387       .  A
C219        C227   1.388       .  A
C219        C236   1.430       .  A
C220        C235   1.425       .  A
C220        C228   1.387       .  A
C221        C233   1.410       .  A
C221        C229   1.383       .  A
C222        C236   1.418       .  A
C222        C230   1.391       .  A
C223        C231   1.383       .  A
C223        C234   1.412       .  A
C224        C232   1.390       .  A
C224        C235   1.413       .  A
C225        C226   1.368       .  A
C225        H237   1.083       .  S
C226        H238   1.083       .  S
C227        C228   1.375       .  A
C227        H239   1.082       .  S
C228        H240   1.082       .  S
C229        C230   1.384   1_655  A
C229        H241   1.082       .  S
C230        H242   1.082       .  S
C231        C232   1.381   1_655  A
C231        H243   1.082       .  S
C232        H244   1.082       .  S
C233       C1277   1.483       .  S
C234       C1181   1.492       .  S
C235       C1194   1.486       .  S
C236       C1162   1.499       .  S
O247       Mg249   2.149       .  S
O247       Mg255   2.157       .  S
O247        C282   1.235       .  S
C248        H287   1.081       .  S
C248        O261   1.234       .  S
C248        O285   1.268       .  A
Mg249       O278   2.169       .  S
Mg249       O293   2.321       .  S
Mg249       O289   2.266       .  S
Mg249       O260   2.295       .  S
O250       Mg292   2.160       .  S
O250       Mg275   2.142       .  S
O250        C271   1.235       .  S
O251        C282   1.270       .  A
O251       Mg275   2.298       .  S
C252       C1197   1.491       .  S
C252        O254   1.275       .  A
C252        O266   1.271       .  A
O253        C281   1.269       .  A
O253       Mg255   2.297       .  S
O254       Mg286   2.300       .  S
Mg255       O261   2.140       .  S
Mg255       O269   2.257       .  S
Mg255       O257   2.287       .  S
C256       C1098   1.496       .  S
C256        O294   1.267       .  A
C256        O262   1.275       .  A
O257        C264   1.274       .  A
H258        C271   1.081       .  S
C259        H284   1.081       .  S
C259        O273   1.236       .  S
C259        O274   1.270       .  A
O260        C283   1.268       .  A
O261       Mg275   2.159       .  S
O262       Mg292   2.302       .  S
C263       C1130   1.492       .  S
C263        O276   1.270       .  A
C263        O268   1.276       .  A
C264       C1082   1.498       .  S
C264        O291   1.272       .  A
Mg265       O272   2.136       .  S
Mg265       O273   2.153       .  S
Mg265       O266   2.268       .  S
Mg265       O267   2.292       .  S
Mg265       O294   2.248       .  S
O267        C271   1.269       .  A
O268       Mg275   2.296       .  S
O269        C288   1.269       .  A
O270        C290   1.277       .  A
O270       Mg286   2.299       .  S
O272       Mg286   2.155       .  S
O272        C283   1.234       .  S
O273       Mg292   2.142       .  S
O274       Mg286   2.301       .  S
Mg275       O291   2.280       .  S
O276       Mg292   2.258       .  S
H277        C282   1.081       .  S
O278       Mg286   2.155       .  S
O278        C281   1.235       .  S
H279        C281   1.081       .  S
H280        C283   1.081       .  S
O285       Mg292   2.296       .  S
C288       C1146   1.501       .  S
C288        O293   1.278       .  A
O289        C290   1.273       .  A
C290       C1114   1.481       .  S
N295        C300   1.351       .  A
N295        C299   1.355       .  A
N295        H327   1.037       .  S
N296        C303   1.351       .  A
N296        C304   1.348   1_565  A
N297        C302   1.354       .  A
N297        C301   1.353       .  A
N297        H328   1.039       .  S
N298        C305   1.351       .  A
N298        C306   1.354   1_565  A
C299        C307   1.386       .  A
C299        C315   1.415       .  A
C300        C316   1.415       .  A
C300        C308   1.388       .  A
C301        C309   1.387       .  A
C301        C318   1.416       .  A
C302        C317   1.416       .  A
C302        C310   1.386       .  A
C303        C315   1.409       .  A
C303        C311   1.385       .  A
C304        C318   1.411       .  A
C304        C312   1.388       .  A
C305        C313   1.387       .  A
C305        C316   1.416       .  A
C306        C314   1.385       .  A
C306        C317   1.415       .  A
C307        C308   1.375       .  A
C307        H319   1.082       .  S
C308        H320   1.082       .  S
C309        C310   1.377       .  A
C309        H321   1.082       .  S
C310        H322   1.082       .  S
C311        C312   1.371   1_565  A
C311        H323   1.082       .  S
C312        H324   1.082       .  S
C313        C314   1.375   1_565  A
C313        H325   1.082       .  S
C314        H326   1.082       .  S
C315       C1149   1.490       .  S
C316       C1066   1.485       .  S
C317       C1405   1.495       .  S
C318       C1053   1.483       .  S
N329        C334   1.351       .  A
N329        C333   1.354   1_556  A
N329        H361   1.039       .  S
N330        C337   1.350       .  A
N330        C338   1.350       .  A
N331        C336   1.352       .  A
N331        C335   1.352   1_556  A
N331        H362   1.038       .  S
N332        C339   1.351       .  A
N332        C340   1.353       .  A
C333        C341   1.387       .  A
C333        C349   1.414       .  A
C334        C350   1.413       .  A
C334        C342   1.387       .  A
C335        C343   1.387       .  A
C335        C352   1.414       .  A
C336        C351   1.414       .  A
C336        C344   1.386       .  A
C337        C349   1.410       .  A
C337        C345   1.386       .  A
C338        C352   1.411       .  A
C338        C346   1.387       .  A
C339        C347   1.386       .  A
C339        C350   1.411       .  A
C340        C348   1.387       .  A
C340        C351   1.415       .  A
C341        C342   1.376   1_554  A
C341        H353   1.082       .  S
C342        H354   1.082       .  S
C343        C344   1.378   1_554  A
C343        H355   1.082       .  S
C344        H356   1.082       .  S
C345        C346   1.371       .  A
C345        H357   1.082       .  S
C346        H358   1.082       .  S
C347        C348   1.375       .  A
C347        H359   1.082       .  S
C348        H360   1.082       .  S
C349       C1037   1.488       .  S
C350       C1133   1.484       .  S
C351       C1018   1.493       .  S
C352       C1466   1.485       .  S
N363        C368   1.350       .  A
N363        C367   1.351   1_554  A
N363        H395   1.035   1_554  S
N364        C371   1.353       .  A
N364        C372   1.352       .  A
N365        C370   1.357   1_556  A
N365        C369   1.356       .  A
N365        H396   1.036       .  S
N366        C373   1.353       .  A
N366        C374   1.351       .  A
C367        C375   1.387       .  A
C367        C383   1.409       .  A
C368        C384   1.411       .  A
C368        C376   1.387       .  A
C369        C377   1.387       .  A
C369        C386   1.422       .  A
C370        C385   1.423       .  A
C370        C378   1.387       .  A
C371        C383   1.413       .  A
C371        C379   1.385       .  A
C372        C386   1.416       .  A
C372        C380   1.388       .  A
C373        C381   1.385       .  A
C373        C384   1.413       .  A
C374        C382   1.388       .  A
C374        C385   1.416       .  A
C375        C376   1.371   1_556  A
C375        H387   1.082       .  S
C376        H388   1.082       .  S
C377        C378   1.380   1_556  A
C377        H389   1.082       .  S
C378        H390   1.082       .  S
C379        C380   1.372       .  A
C379        H391   1.082       .  S
C380        H392   1.082       .  S
C381        C382   1.374       .  A
C381        H393   1.082       .  S
C382        H394   1.082       .  S
C383       C1386   1.484       .  S
C384        C986   1.484       .  S
C385       C1261   1.497       .  S
C386       C1002   1.496       .  S
O397       Mg399   2.144       .  S
O397       Mg405   2.157       .  S
O397        C432   1.234       .  S
C398        H437   1.081       .  S
C398        O411   1.234       .  S
C398        O435   1.268       .  A
Mg399       O428   2.157       .  S
Mg399       O443   2.303       .  S
Mg399       O439   2.254       .  S
Mg399       O410   2.299       .  S
O400       Mg442   2.163       .  S
O400       Mg425   2.161       .  S
O400        C421   1.235       .  S
O401        C432   1.268       .  A
O401       Mg425   2.298       .  S
C402       C1178   1.489       .  S
C402        O404   1.271       .  A
C402        O416   1.276       .  A
O403        C431   1.268       .  A
O403       Mg405   2.292       .  S
O404       Mg436   2.254       .  S
Mg405       O411   2.151       .  S
Mg405       O419   2.251       .  S
Mg405       O407   2.286       .  S
C406        C954   1.503       .  S
C406        O444   1.271       .  A
C406        O412   1.277       .  A
O407        C414   1.273       .  A
H408        C421   1.081       .  S
C409        H434   1.081       .  S
C409        O423   1.236       .  S
C409        O424   1.271       .  A
O410        C433   1.269       .  A
O411       Mg425   2.162       .  S
O412       Mg442   2.316       .  S
C413       C1005   1.496       .  S
C413        O426   1.273       .  A
C413        O418   1.276       .  A
C414        C938   1.492       .  S
C414        O441   1.272       .  A
Mg415       O422   2.154       .  S
Mg415       O423   2.157       .  S
Mg415       O416   2.325       .  S
Mg415       O417   2.308       .  S
Mg415       O444   2.267       .  S
O417        C421   1.271       .  A
O418       Mg425   2.313       .  S
O419        C438   1.271       .  A
O420        C440   1.274       .  A
O420       Mg436   2.309       .  S
O422       Mg436   2.156       .  S
O422        C433   1.235       .  S
O423       Mg442   2.167       .  S
O424       Mg436   2.307       .  S
Mg425       O441   2.274       .  S
O426       Mg442   2.278       .  S
H427        C432   1.081       .  S
O428       Mg436   2.139       .  S
O428        C431   1.234       .  S
H429        C431   1.081       .  S
H430        C433   1.081       .  S
O435       Mg442   2.300       .  S
C438       C1069   1.487       .  S
C438        O443   1.273       .  A
O439        C440   1.272       .  A
C440        C970   1.485       .  S
N445        C450   1.354       .  A
N445        C449   1.354       .  A
N445        H477   1.038       .  S
N446        C453   1.350   1_545  A
N446        C454   1.350       .  A
N447        C452   1.349       .  A
N447        C451   1.348       .  A
N447        H478   1.038       .  S
N448        C455   1.349   1_545  A
N448        C456   1.351       .  A
C449        C457   1.387       .  A
C449        C465   1.418       .  A
C450        C466   1.417       .  A
C450        C458   1.387       .  A
C451        C459   1.387       .  A
C451        C468   1.408       .  A
C452        C467   1.408       .  A
C452        C460   1.387       .  A
C453        C465   1.411       .  A
C453        C461   1.387       .  A
C454        C468   1.411       .  A
C454        C462   1.386       .  A
C455        C463   1.387       .  A
C455        C466   1.412       .  A
C456        C464   1.385       .  A
C456        C467   1.411       .  A
C457        C458   1.378       .  A
C457        H469   1.082       .  S
C458        H470   1.082       .  S
C459        C460   1.374       .  A
C459        H471   1.082       .  S
C460        H472   1.082       .  S
C461        C462   1.373   1_565  A
C461        H473   1.082       .  S
C462        H474   1.082       .  S
C463        C464   1.372   1_565  A
C463        H475   1.082       .  S
C464        H476   1.082       .  S
C465       C1245   1.487       .  S
C466        C973   1.487       .  S
C467       C1373   1.482       .  S
C468        C922   1.478       .  S
O479       Mg481   2.161       .  S
O479       Mg487   2.161       .  S
O479        C514   1.234       .  S
C480        H519   1.081       .  S
C480        O493   1.235       .  S
C480        O517   1.269       .  A
Mg481       O510   2.157       .  S
Mg481       O525   2.286       .  S
Mg481       O521   2.267       .  S
Mg481       O492   2.297       .  S
O482       Mg524   2.159       .  S
O482       Mg507   2.163       .  S
O482        C503   1.236       .  S
O483        C514   1.269       .  A
O483       Mg507   2.303       .  S
C484       C1498   1.490       .  S
C484        O486   1.273       .  A
C484        O498   1.278       .  A
O485        C513   1.271       .  A
O485       Mg487   2.307       .  S
O486       Mg518   2.271       .  S
Mg487       O493   2.146       .  S
Mg487       O501   2.264       .  S
Mg487       O489   2.326       .  S
C488        C925   1.484       .  S
C488        O526   1.271       .  A
C488        O494   1.272       .  A
O489        C496   1.277       .  A
H490        C503   1.081       .  S
C491        H516   1.081       .  S
C491        O505   1.234       .  S
C491        O506   1.269       .  A
O492        C515   1.269       .  A
O493       Mg507   2.160       .  S
O494       Mg524   2.282       .  S
C495       C1309   1.490       .  S
C495        O508   1.269       .  A
C495        O500   1.277       .  A
C496        C893   1.495       .  S
C496        O523   1.276       .  A
Mg497       O504   2.141       .  S
Mg497       O505   2.159       .  S
Mg497       O498   2.337       .  S
Mg497       O499   2.309       .  S
Mg497       O526   2.264       .  S
O499        C503   1.272       .  A
O500       Mg507   2.333       .  S
O501        C520   1.272       .  A
O502        C522   1.274       .  A
O502       Mg518   2.313       .  S
O504       Mg518   2.151       .  S
O504        C515   1.235       .  S
O505       Mg524   2.157       .  S
O506       Mg518   2.302       .  S
Mg507       O523   2.282       .  S
O508       Mg524   2.250       .  S
H509        C514   1.081       .  S
O510       Mg518   2.160       .  S
O510        C513   1.236       .  S
H511        C513   1.081       .  S
H512        C515   1.081       .  S
O517       Mg524   2.294       .  S
C520        C989   1.487       .  S
C520        O525   1.271       .  A
O521        C522   1.271       .  A
C522        C906   1.475       .  S
N527        C532   1.352       .  A
N527        C531   1.353   1_655  A
N527        H559   1.038       .  S
N528        C535   1.351       .  A
N528        C536   1.351       .  A
N529        C534   1.354       .  A
N529        C533   1.354   1_655  A
N529        H560   1.039       .  S
N530        C537   1.352       .  A
N530        C538   1.352       .  A
C531        C539   1.388       .  A
C531        C547   1.415       .  A
C532        C548   1.414       .  A
C532        C540   1.388       .  A
C533        C541   1.386       .  A
C533        C550   1.415       .  A
C534        C549   1.418       .  A
C534        C542   1.388       .  A
C535        C547   1.412       .  A
C535        C543   1.385       .  A
C536        C550   1.414       .  A
C536        C544   1.387       .  A
C537        C545   1.386       .  A
C537        C548   1.415       .  A
C538        C546   1.386       .  A
C538        C549   1.416       .  A
C539        C540   1.371   1_455  A
C539        H551   1.082       .  S
C540        H552   1.082       .  S
C541        C542   1.376   1_455  A
C541        H553   1.082       .  S
C542        H554   1.082       .  S
C543        C544   1.374       .  A
C543        H555   1.082       .  S
C544        H556   1.082       .  S
C545        C546   1.374       .  A
C545        H557   1.082       .  S
C546        H558   1.082       .  S
C547        C874   1.486       .  S
C548       C1229   1.487       .  S
C549        C909   1.494       .  S
C550       C1437   1.489       .  S
O561       Mg563   2.166       .  S
O561       Mg569   2.163       .  S
O561        C596   1.237       .  S
C562        H601   1.081       .  S
C562        O575   1.234       .  S
C562        O599   1.268       .  A
Mg563       O592   2.159       .  S
Mg563       O607   2.308       .  S
Mg563       O603   2.295       .  S
Mg563       O574   2.304       .  S
O564       Mg606   2.160       .  S
O564       Mg589   2.139       .  S
O564        C585   1.234       .  S
O565        C596   1.272       .  A
O565       Mg589   2.312       .  S
C566        C858   1.482       .  S
C566        O568   1.272       .  A
C566        O580   1.274       .  A
O567        C595   1.269       .  A
O567       Mg569   2.298       .  S
O568       Mg600   2.275       .  S
Mg569       O575   2.134       .  S
Mg569       O583   2.244       .  S
Mg569       O571   2.288       .  S
C570       C1290   1.500       .  S
C570        O608   1.274       .  A
C570        O576   1.273       .  A
O571        C578   1.270       .  A
H572        C585   1.081       .  S
C573        H598   1.081       .  S
C573        O587   1.235       .  S
C573        O588   1.269       .  A
O574        C597   1.269       .  A
O575       Mg589   2.142       .  S
O576       Mg606   2.297       .  S
C577        C842   1.496       .  S
C577        O590   1.274       .  A
C577        O582   1.271       .  A
C578       C1034   1.498       .  S
C578        O605   1.271       .  A
Mg579       O586   2.158       .  S
Mg579       O587   2.160       .  S
Mg579       O580   2.285       .  S
Mg579       O581   2.296       .  S
Mg579       O608   2.280       .  S
O581        C585   1.269       .  A
O582       Mg589   2.284       .  S
O583        C602   1.268       .  A
O584        C604   1.275       .  A
O584       Mg600   2.311       .  S
O586       Mg600   2.165       .  S
O586        C597   1.234       .  S
O587       Mg606   2.148       .  S
O588       Mg600   2.297       .  S
Mg589       O605   2.274       .  S
O590       Mg606   2.278       .  S
H591        C596   1.081       .  S
O592       Mg600   2.152       .  S
O592        C595   1.235       .  S
H593        C595   1.081       .  S
H594        C597   1.081       .  S
O599       Mg606   2.297       .  S
C602        C877   1.483       .  S
C602        O607   1.276       .  A
O603        C604   1.276       .  A
C604       C1165   1.505       .  S
N609        C614   1.353       .  A
N609        C613   1.353       .  A
N609        H641   1.037       .  S
N610        C617   1.350   1_565  A
N610        C618   1.351       .  A
N611        C616   1.353       .  A
N611        C615   1.353       .  A
N611        H642   1.038       .  S
N612        C619   1.352   1_565  A
N612        C620   1.351       .  A
C613        C621   1.386       .  A
C613        C629   1.414       .  A
C614        C630   1.417       .  A
C614        C622   1.388       .  A
C615        C623   1.386       .  A
C615        C632   1.413       .  A
C616        C631   1.415       .  A
C616        C624   1.388       .  A
C617        C629   1.411       .  A
C617        C625   1.387       .  A
C618        C632   1.410       .  A
C618        C626   1.386       .  A
C619        C627   1.386       .  A
C619        C630   1.414       .  A
C620        C628   1.387       .  A
C620        C631   1.414       .  A
C621        C622   1.376       .  A
C621        H633   1.082       .  S
C622        H634   1.082       .  S
C623        C624   1.374       .  A
C623        H635   1.082       .  S
C624        H636   1.082       .  S
C625        C626   1.371   1_545  A
C625        H637   1.082       .  S
C626        H638   1.082       .  S
C627        C628   1.373   1_545  A
C627        H639   1.082       .  S
C628        H640   1.082       .  S
C629       C1450   1.484       .  S
C630        C829   1.489       .  S
C631       C1117   1.485       .  S
C632        C861   1.488       .  S
O643       Mg645   2.149       .  S
O643       Mg651   2.152       .  S
O643        C678   1.234       .  S
C644        H683   1.081       .  S
C644        O657   1.235       .  S
C644        O681   1.269       .  A
Mg645       O674   2.161       .  S
Mg645       O689   2.296       .  S
Mg645       O685   2.259       .  S
Mg645       O656   2.296       .  S
O646       Mg688   2.154       .  S
O646       Mg671   2.146       .  S
O646        C667   1.235       .  S
O647        C678   1.269       .  A
O647       Mg671   2.303       .  S
C648        C826   1.484       .  S
C648        O650   1.275       .  A
C648        O662   1.272       .  A
O649        C677   1.271       .  A
O649       Mg651   2.309       .  S
O650       Mg682   2.291       .  S
Mg651       O657   2.148       .  S
Mg651       O665   2.282       .  S
Mg651       O653   2.299       .  S
C652       C1517   1.493       .  S
C652        O690   1.271       .  A
C652        O658   1.273       .  A
O653        C660   1.274       .  A
H654        C667   1.081       .  S
C655        H680   1.081       .  S
C655        O669   1.233       .  S
C655        O670   1.267       .  A
O656        C679   1.269       .  A
O657       Mg671   2.168       .  S
O658       Mg688   2.276       .  S
C659        C813   1.496       .  S
C659        O672   1.266       .  A
C659        O664   1.278       .  A
C660       C1021   1.496       .  S
C660        O687   1.275       .  A
Mg661       O668   2.140       .  S
Mg661       O669   2.152       .  S
Mg661       O662   2.282       .  S
Mg661       O663   2.297       .  S
Mg661       O690   2.275       .  S
O663        C667   1.269       .  A
O664       Mg671   2.323       .  S
O665        C684   1.274       .  A
O666        C686   1.271       .  A
O666       Mg682   2.285       .  S
O668       Mg682   2.166       .  S
O668        C679   1.235       .  S
O669       Mg688   2.127       .  S
O670       Mg682   2.289       .  S
Mg671       O687   2.277       .  S
O672       Mg688   2.236       .  S
H673        C678   1.081       .  S
O674       Mg682   2.163       .  S
O674        C677   1.236       .  S
H675        C677   1.081       .  S
H676        C679   1.081       .  S
O681       Mg688   2.294       .  S
C684        C797   1.498       .  S
C684        O689   1.272       .  A
O685        C686   1.272       .  A
C686       C1050   1.493       .  S
N691        C696   1.353       .  A
N691        C695   1.355   1_655  A
N691        H723   1.039       .  S
N692        C699   1.348       .  A
N692        C700   1.349       .  A
N693        C698   1.354   1_455  A
N693        C697   1.354       .  A
N693        H724   1.039       .  S
N694        C701   1.353       .  A
N694        C702   1.354       .  A
C695        C703   1.386       .  A
C695        C711   1.416       .  A
C696        C712   1.417       .  A
C696        C704   1.388       .  A
C697        C705   1.386       .  A
C697        C714   1.414       .  A
C698        C713   1.418       .  A
C698        C706   1.388       .  A
C699        C711   1.408       .  A
C699        C707   1.387       .  A
C700        C714   1.407       .  A
C700        C708   1.386       .  A
C701        C709   1.386       .  A
C701        C712   1.416       .  A
C702        C710   1.387       .  A
C702        C713   1.419       .  A
C703        C704   1.377   1_455  A
C703        H715   1.082       .  S
C704        H716   1.082       .  S
C705        C706   1.375   1_455  A
C705        H717   1.082       .  S
C706        H718   1.082       .  S
C707        C708   1.371       .  A
C707        H719   1.082       .  S
C708        H720   1.082       .  S
C709        C710   1.376       .  A
C709        H721   1.082       .  S
C710        H722   1.082       .  S
C711        C810   1.485       .  S
C712       C1357   1.493       .  S
C713        C957   1.501       .  S
C714       C1101   1.483       .  S
N725        C730   1.354       .  A
N725        C729   1.355       .  A
N725        H757   1.046       .  S
N726        C733   1.353       .  A
N726        C734   1.354   1_554  A
N727        C732   1.352       .  A
N727        C731   1.350       .  A
N727        H758   1.046       .  S
N728        C735   1.352   1_556  A
N728        C736   1.353       .  A
C729        C737   1.387       .  A
C729        C745   1.421       .  A
C730        C746   1.421       .  A
C730        C738   1.388       .  A
C731        C739   1.386       .  A
C731        C748   1.411       .  A
C732        C747   1.415       .  A
C732        C740   1.388       .  A
C733        C745   1.417       .  A
C733        C741   1.387       .  A
C734        C748   1.416       .  A
C734        C742   1.385       .  A
C735        C743   1.387       .  A
C735        C746   1.416       .  A
C736        C744   1.386       .  A
C736        C747   1.416       .  A
C737        C738   1.378       .  A
C737        H749   1.083       .  S
C738        H750   1.083       .  S
C739        C740   1.374       .  A
C739        H751   1.083       .  S
C740        H752   1.083       .  S
C741        C742   1.376   1_554  A
C741        H753   1.082       .  S
C742        H754   1.082       .  S
C743        C744   1.376   1_554  A
C743        H755   1.082       .  S
C744        H756   1.082       .  S
C745        C890   1.497       .  S
C746       C1421   1.496       .  S
C747        C794   1.495       .  S
C748       C1338   1.491       .  S
N759        C764   1.353   1_556  A
N759        C763   1.353       .  A
N759        H791   1.039       .  S
N760        C767   1.351       .  A
N760        C768   1.350       .  A
N761        C766   1.352   1_556  A
N761        C765   1.352       .  A
N761        H792   1.038       .  S
N762        C769   1.350       .  A
N762        C770   1.352       .  A
C763        C771   1.387       .  A
C763        C779   1.415       .  A
C764        C780   1.415       .  A
C764        C772   1.387   1_554  A
C765        C773   1.388       .  A
C765        C782   1.414       .  A
C766        C781   1.411       .  A
C766        C774   1.385       .  A
C767        C779   1.413       .  A
C767        C775   1.386       .  A
C768        C782   1.414       .  A
C768        C776   1.386       .  A
C769        C777   1.387       .  A
C769        C780   1.415       .  A
C770        C778   1.385       .  A
C770        C781   1.412       .  A
C771        C772   1.375       .  A
C771        H783   1.082       .  S
C772        H784   1.082   1_556  S
C773        C774   1.376   1_556  A
C773        H785   1.082       .  S
C774        H786   1.082       .  S
C775        C776   1.375       .  A
C775        H787   1.082       .  S
C776        H788   1.082       .  S
C777        C778   1.375       .  A
C777        H789   1.082       .  S
C778        H790   1.082       .  S
C779       C1085   1.491       .  S
C780        C845   1.489       .  S
C781       C1213   1.488       .  S
C782        C941   1.486       .  S
C793        C794   1.401       .  A
C793        C798   1.406       .  A
C793        H800   1.084       .  S
C794        C795   1.411       .  A
C795        C796   1.407       .  A
C795        C802   1.507       .  S
C796        C797   1.410       .  A
C796        H801   1.083       .  S
C797        C798   1.424       .  A
C798        C799   1.510       .  S
C799        H803   1.111       .  S
C799        H804   1.110       .  S
C799        H805   1.109       .  S
C802        H806   1.110       .  S
C802        H807   1.109       .  S
C802        H808   1.111       .  S
C809        C810   1.398       .  A
C809        C814   1.406       .  A
C809        H816   1.084       .  S
C810        C811   1.411       .  A
C811        C812   1.401       .  A
C811        C818   1.508       .  S
C812        C813   1.408       .  A
C812        H817   1.084       .  S
C813        C814   1.427       .  A
C814        C815   1.510       .  S
C815        H819   1.111       .  S
C815        H820   1.110       .  S
C815        H821   1.110       .  S
C818        H822   1.108       .  S
C818        H823   1.110       .  S
C818        H824   1.110       .  S
C825        C826   1.404       .  A
C825        C830   1.407       .  A
C825        H832   1.084       .  S
C826        C827   1.421       .  A
C827        C828   1.402       .  A
C827        C834   1.510       .  S
C828        C829   1.398       .  A
C828        H833   1.084       .  S
C829        C830   1.412       .  A
C830        C831   1.505       .  S
C831        H835   1.111       .  S
C831        H836   1.110       .  S
C831        H837   1.110       .  S
C834        H838   1.108       .  S
C834        H839   1.111       .  S
C834        H840   1.111       .  S
C841        C842   1.410       .  A
C841        C846   1.403       .  A
C841        H848   1.084       .  S
C842        C843   1.427       .  A
C843        C844   1.403       .  A
C843        C850   1.511       .  S
C844        C845   1.399       .  A
C844        H849   1.085       .  S
C845        C846   1.412       .  A
C846        C847   1.507       .  S
C847        H851   1.110       .  S
C847        H852   1.108       .  S
C847        H853   1.110       .  S
C850        H854   1.110       .  S
C850        H855   1.110       .  S
C850        H856   1.111       .  S
C857        C858   1.406       .  A
C857        C862   1.400       .  A
C857        H864   1.084       .  S
C858        C859   1.415       .  A
C859        C860   1.407       .  A
C859        C866   1.506       .  S
C860        C861   1.404       .  A
C860        H865   1.084       .  S
C861        C862   1.409       .  A
C862        C863   1.508       .  S
C863        H867   1.111       .  S
C863        H868   1.109       .  S
C863        H869   1.110       .  S
C866        H870   1.109       .  S
C866        H871   1.110       .  S
C866        H872   1.111       .  S
C873        C874   1.402       .  A
C873        C878   1.405       .  A
C873        H880   1.084       .  S
C874        C875   1.413       .  A
C875        C876   1.400       .  A
C875        C882   1.508       .  S
C876        C877   1.405       .  A
C876        H881   1.085       .  S
C877        C878   1.418       .  A
C878        C879   1.507       .  S
C879        H883   1.111       .  S
C879        H884   1.106       .  S
C879        H885   1.110       .  S
C882        H886   1.110       .  S
C882        H887   1.107       .  S
C882        H888   1.110       .  S
C889        C890   1.404       .  A
C889        C894   1.411       .  A
C889        H896   1.084       .  S
C890        C891   1.410       .  A
C891        C892   1.405       .  A
C891        C898   1.507       .  S
C892        C893   1.408       .  A
C892        H897   1.084       .  S
C893        C894   1.420       .  A
C894        C895   1.507       .  S
C895        H899   1.111       .  S
C895        H900   1.109       .  S
C895        H901   1.110       .  S
C898        H902   1.110       .  S
C898        H903   1.110       .  S
C898        H904   1.111       .  S
C905        C906   1.402       .  A
C905        C910   1.410       .  A
C905        H912   1.084       .  S
C906        C907   1.412       .  A
C907        C908   1.400       .  A
C907        C914   1.508       .  S
C908        C909   1.401       .  A
C908        H913   1.084       .  S
C909        C910   1.419       .  A
C910        C911   1.506       .  S
C911        H915   1.110       .  S
C911        H916   1.108       .  S
C911        H917   1.110       .  S
C914        H918   1.109       .  S
C914        H919   1.110       .  S
C914        H920   1.111       .  S
C921        C922   1.398       .  A
C921        C926   1.400       .  A
C921        H928   1.085       .  S
C922        C923   1.405       .  A
C923        C924   1.402       .  A
C923        C930   1.506       .  S
C924        C925   1.409       .  A
C924        H929   1.082       .  S
C925        C926   1.419       .  A
C926        C927   1.507       .  S
C927        H931   1.111       .  S
C927        H932   1.110       .  S
C927        H933   1.110       .  S
C930        H934   1.110       .  S
C930        H935   1.110       .  S
C930        H936   1.108       .  S
C937        C938   1.410       .  A
C937        C942   1.403       .  A
C937        H944   1.084       .  S
C938        C939   1.422       .  A
C939        C940   1.404       .  A
C939        C946   1.509       .  S
C940        C941   1.400       .  A
C940        H945   1.084       .  S
C941        C942   1.411       .  A
C942        C943   1.508       .  S
C943        H947   1.110       .  S
C943        H948   1.110       .  S
C943        H949   1.108       .  S
C946        H950   1.110       .  S
C946        H951   1.110       .  S
C946        H952   1.111       .  S
C953        C954   1.411       .  A
C953        C958   1.406       .  A
C953        H960   1.084       .  S
C954        C955   1.424       .  A
C955        C956   1.405       .  A
C955        C962   1.507       .  S
C956        C957   1.403       .  A
C956        H961   1.084       .  S
C957        C958   1.415       .  A
C958        C959   1.508       .  S
C959        H963   1.110       .  S
C959        H964   1.111       .  S
C959        H965   1.107       .  S
C962        H966   1.110       .  S
C962        H967   1.104       .  S
C962        H968   1.111       .  S
C969        C970   1.407       .  A
C969        C974   1.400       .  A
C969        H976   1.084       .  S
C970        C971   1.418       .  A
C971        C972   1.407       .  A
C971        C978   1.507       .  S
C972        C973   1.402       .  A
C972        H977   1.084       .  S
C973        C974   1.410       .  A
C974        C975   1.508       .  S
C975        H979   1.111       .  S
C975        H980   1.110       .  S
C975        H981   1.109       .  S
C978        H982   1.109       .  S
C978        H983   1.110       .  S
C978        H984   1.111       .  S
C985        C986   1.399       .  A
C985        C990   1.404       .  A
C985        H992   1.084       .  S
C986        C987   1.409       .  A
C987        C988   1.401       .  A
C987        C994   1.507       .  S
C988        C989   1.408       .  A
C988        H993   1.084       .  S
C989        C990   1.422       .  A
C990        C991   1.508       .  S
C991        H995   1.111       .  S
C991        H996   1.110       .  S
C991        H997   1.109       .  S
C994        H998   1.110       .  S
C994        H999   1.110       .  S
C994       H1000   1.111       .  S
C1001      C1002   1.402       .  A
C1001      C1006   1.407       .  A
C1001      H1008   1.084       .  S
C1002      C1003   1.411       .  A
C1003      C1004   1.407       .  A
C1003      C1010   1.506       .  S
C1004      C1005   1.409       .  A
C1004      H1009   1.084       .  S
C1005      C1006   1.423       .  A
C1006      C1007   1.509       .  S
C1007      H1011   1.111       .  S
C1007      H1012   1.110       .  S
C1007      H1013   1.110       .  S
C1010      H1014   1.109       .  S
C1010      H1015   1.110       .  S
C1010      H1016   1.111       .  S
C1017      C1018   1.401       .  A
C1017      C1022   1.403       .  A
C1017      H1024   1.084       .  S
C1018      C1019   1.412       .  A
C1019      C1020   1.406       .  A
C1019      C1026   1.507       .  S
C1020      C1021   1.410       .  A
C1020      H1025   1.084       .  S
C1021      C1022   1.423       .  A
C1022      C1023   1.510       .  S
C1023      H1027   1.111       .  S
C1023      H1028   1.109       .  S
C1023      H1029   1.110       .  S
C1026      H1030   1.108       .  S
C1026      H1031   1.110       .  S
C1026      H1032   1.111       .  S
C1033      C1034   1.412       .  A
C1033      C1038   1.407       .  A
C1033      H1040   1.083       .  S
C1034      C1035   1.426       .  A
C1035      C1036   1.400       .  A
C1035      C1042   1.509       .  S
C1036      C1037   1.396       .  A
C1036      H1041   1.085       .  S
C1037      C1038   1.409       .  A
C1038      C1039   1.506       .  S
C1039      H1043   1.111       .  S
C1039      H1044   1.110       .  S
C1039      H1045   1.110       .  S
C1042      H1046   1.108       .  S
C1042      H1047   1.110       .  S
C1042      H1048   1.111       .  S
C1049      C1050   1.411       .  A
C1049      C1054   1.401       .  A
C1049      H1056   1.084       .  S
C1050      C1051   1.425       .  A
C1051      C1052   1.401       .  A
C1051      C1058   1.510       .  S
C1052      C1053   1.398       .  A
C1052      H1057   1.085       .  S
C1053      C1054   1.409       .  A
C1054      C1055   1.507       .  S
C1055      H1059   1.110       .  S
C1055      H1060   1.108       .  S
C1055      H1061   1.110       .  S
C1058      H1062   1.110       .  S
C1058      H1063   1.110       .  S
C1058      H1064   1.111       .  S
C1065      C1066   1.402       .  A
C1065      C1070   1.407       .  A
C1065      H1072   1.084       .  S
C1066      C1067   1.408       .  A
C1067      C1068   1.399       .  A
C1067      C1074   1.508       .  S
C1068      C1069   1.408       .  A
C1068      H1073   1.084       .  S
C1069      C1070   1.420       .  A
C1070      C1071   1.508       .  S
C1071      H1075   1.111       .  S
C1071      H1076   1.110       .  S
C1071      H1077   1.109       .  S
C1074      H1078   1.110       .  S
C1074      H1079   1.110       .  S
C1074      H1080   1.111       .  S
C1081      C1082   1.411       .  A
C1081      C1086   1.401       .  A
C1081      H1088   1.083       .  S
C1082      C1083   1.424       .  A
C1083      C1084   1.409       .  A
C1083      C1090   1.509       .  S
C1084      C1085   1.403       .  A
C1084      H1089   1.084       .  S
C1085      C1086   1.409       .  A
C1086      C1087   1.508       .  S
C1087      H1091   1.111       .  S
C1087      H1092   1.109       .  S
C1087      H1093   1.110       .  S
C1090      H1094   1.110       .  S
C1090      H1095   1.110       .  S
C1090      H1096   1.111       .  S
C1097      C1098   1.410       .  A
C1097      C1102   1.400       .  A
C1097      H1104   1.084       .  S
C1098      C1099   1.426       .  A
C1099      C1100   1.404       .  A
C1099      C1106   1.509       .  S
C1100      C1101   1.398       .  A
C1100      H1105   1.084       .  S
C1101      C1102   1.410       .  A
C1102      C1103   1.508       .  S
C1103      H1107   1.110       .  S
C1103      H1108   1.108       .  S
C1103      H1109   1.110       .  S
C1106      H1110   1.110       .  S
C1106      H1111   1.109       .  S
C1106      H1112   1.111       .  S
C1113      C1114   1.405       .  A
C1113      C1118   1.399       .  A
C1113      H1120   1.084       .  S
C1114      C1115   1.416       .  A
C1115      C1116   1.407       .  A
C1115      C1122   1.507       .  S
C1116      C1117   1.402       .  A
C1116      H1121   1.084       .  S
C1117      C1118   1.409       .  A
C1118      C1119   1.507       .  S
C1119      H1123   1.111       .  S
C1119      H1124   1.110       .  S
C1119      H1125   1.110       .  S
C1122      H1126   1.110       .  S
C1122      H1127   1.109       .  S
C1122      H1128   1.111       .  S
C1129      C1130   1.410       .  A
C1129      C1134   1.399       .  A
C1129      H1136   1.084       .  S
C1130      C1131   1.423       .  A
C1131      C1132   1.406       .  A
C1131      C1138   1.509       .  S
C1132      C1133   1.400       .  A
C1132      H1137   1.084       .  S
C1133      C1134   1.407       .  A
C1134      C1135   1.508       .  S
C1135      H1139   1.111       .  S
C1135      H1140   1.110       .  S
C1135      H1141   1.110       .  S
C1138      H1142   1.110       .  S
C1138      H1143   1.110       .  S
C1138      H1144   1.111       .  S
C1145      C1146   1.411       .  A
C1145      C1150   1.404       .  A
C1145      H1152   1.083       .  S
C1146      C1147   1.427       .  A
C1147      C1148   1.407       .  A
C1147      C1154   1.509       .  S
C1148      C1149   1.398       .  A
C1148      H1153   1.084       .  S
C1149      C1150   1.408       .  A
C1150      C1151   1.507       .  S
C1151      H1155   1.111       .  S
C1151      H1156   1.110       .  S
C1151      H1157   1.110       .  S
C1154      H1158   1.109       .  S
C1154      H1159   1.110       .  S
C1154      H1160   1.111       .  S
C1161      C1162   1.400       .  A
C1161      C1166   1.406       .  A
C1161      H1168   1.084       .  S
C1162      C1163   1.412       .  A
C1163      C1164   1.411       .  A
C1163      C1170   1.506       .  S
C1164      C1165   1.411       .  A
C1164      H1169   1.083       .  S
C1165      C1166   1.427       .  A
C1166      C1167   1.510       .  S
C1167      H1171   1.111       .  S
C1167      H1172   1.110       .  S
C1167      H1173   1.110       .  S
C1170      H1174   1.109       .  S
C1170      H1175   1.110       .  S
C1170      H1176   1.111       .  S
C1177      C1178   1.405       .  A
C1177      C1182   1.403       .  A
C1177      H1184   1.084       .  S
C1178      C1179   1.416       .  A
C1179      C1180   1.409       .  A
C1179      C1186   1.506       .  S
C1180      C1181   1.406       .  A
C1180      H1185   1.084       .  S
C1181      C1182   1.415       .  A
C1182      C1183   1.508       .  S
C1183      H1187   1.111       .  S
C1183      H1188   1.109       .  S
C1183      H1189   1.110       .  S
C1186      H1190   1.110       .  S
C1186      H1191   1.104       .  S
C1186      H1192   1.111       .  S
C1193      C1194   1.404       .  A
C1193      C1198   1.409       .  A
C1193      H1200   1.084       .  S
C1194      C1195   1.408       .  A
C1195      C1196   1.398       .  A
C1195      C1202   1.508       .  S
C1196      C1197   1.411       .  A
C1196      H1201   1.084       .  S
C1197      C1198   1.417       .  A
C1198      C1199   1.506       .  S
C1199      H1203   1.111       .  S
C1199      H1204   1.109       .  S
C1199      H1205   1.110       .  S
C1202      H1206   1.108       .  S
C1202      H1207   1.110       .  S
C1202      H1208   1.110       .  S
C1209      C1210   1.409       .  A
C1209      C1214   1.401       .  A
C1209      H1216   1.084       .  S
C1210      C1211   1.425       .  A
C1211      C1212   1.408       .  A
C1211      C1218   1.508       .  S
C1212      C1213   1.400       .  A
C1212      H1217   1.084       .  S
C1213      C1214   1.411       .  A
C1214      C1215   1.508       .  S
C1215      H1219   1.110       .  S
C1215      H1220   1.110       .  S
C1215      H1221   1.108       .  S
C1218      H1222   1.110       .  S
C1218      H1223   1.109       .  S
C1218      H1224   1.111       .  S
C1225      C1226   1.409       .  A
C1225      C1230   1.404       .  A
C1225      H1232   1.084       .  S
C1226      C1227   1.424       .  A
C1227      C1228   1.402       .  A
C1227      C1234   1.510       .  S
C1228      C1229   1.399       .  A
C1228      H1233   1.084       .  S
C1229      C1230   1.411       .  A
C1230      C1231   1.507       .  S
C1231      H1235   1.111       .  S
C1231      H1236   1.108       .  S
C1231      H1237   1.110       .  S
C1234      H1238   1.110       .  S
C1234      H1239   1.110       .  S
C1234      H1240   1.111       .  S
C1241      C1242   1.411       .  A
C1241      C1246   1.401       .  A
C1241      H1248   1.083       .  S
C1242      C1243   1.422       .  A
C1243      C1244   1.407       .  A
C1243      C1250   1.505       .  S
C1244      C1245   1.400       .  A
C1244      H1249   1.084       .  S
C1245      C1246   1.407       .  A
C1246      C1247   1.507       .  S
C1247      H1251   1.111       .  S
C1247      H1252   1.110       .  S
C1247      H1253   1.110       .  S
C1250      H1254   1.110       .  S
C1250      H1255   1.104       .  S
C1250      H1256   1.111       .  S
C1257      C1258   1.411       .  A
C1257      C1262   1.408       .  A
C1257      H1264   1.084       .  S
C1258      C1259   1.428       .  A
C1259      C1260   1.407       .  A
C1259      C1266   1.511       .  S
C1260      C1261   1.401       .  A
C1260      H1265   1.084       .  S
C1261      C1262   1.413       .  A
C1262      C1263   1.507       .  S
C1263      H1267   1.110       .  S
C1263      H1268   1.110       .  S
C1263      H1269   1.108       .  S
C1266      H1270   1.110       .  S
C1266      H1271   1.110       .  S
C1266      H1272   1.111       .  S
C1273      C1274   1.409       .  A
C1273      C1278   1.407       .  A
C1273      H1280   1.084       .  S
C1274      C1275   1.422       .  A
C1275      C1276   1.398       .  A
C1275      C1282   1.507       .  S
C1276      C1277   1.399       .  A
C1276      H1281   1.085       .  S
C1277      C1278   1.413       .  A
C1278      C1279   1.506       .  S
C1279      H1283   1.110       .  S
C1279      H1284   1.108       .  S
C1279      H1285   1.110       .  S
C1282      H1286   1.109       .  S
C1282      H1287   1.110       .  S
C1282      H1288   1.111       .  S
C1289      C1290   1.412       .  A
C1289      C1294   1.408       .  A
C1289      H1296   1.084       .  S
C1290      C1291   1.424       .  A
C1291      C1292   1.403       .  A
C1291      C1298   1.511       .  S
C1292      C1293   1.404       .  A
C1292      H1297   1.084       .  S
C1293      C1294   1.413       .  A
C1294      C1295   1.507       .  S
C1295      H1299   1.110       .  S
C1295      H1300   1.110       .  S
C1295      H1301   1.108       .  S
C1298      H1302   1.110       .  S
C1298      H1303   1.110       .  S
C1298      H1304   1.111       .  S
C1305      C1306   1.397       .  A
C1305      C1310   1.402       .  A
C1305      H1312   1.084       .  S
C1306      C1307   1.418       .  A
C1307      C1308   1.409       .  A
C1307      C1314   1.507       .  S
C1308      C1309   1.405       .  A
C1308      H1313   1.084       .  S
C1309      C1310   1.421       .  A
C1310      C1311   1.507       .  S
C1311      H1315   1.109       .  S
C1311      H1316   1.111       .  S
C1311      H1317   1.109       .  S
C1314      H1318   1.110       .  S
C1314      H1319   1.108       .  S
C1314      H1320   1.110       .  S
C1321      C1322   1.406       .  A
C1321      C1326   1.400       .  A
C1321      H1328   1.083       .  S
C1322      C1323   1.424       .  A
C1323      C1324   1.411       .  A
C1323      C1330   1.508       .  S
C1324      C1325   1.406       .  A
C1324      H1329   1.084       .  S
C1325      C1326   1.417       .  A
C1326      C1327   1.510       .  S
C1327      H1331   1.110       .  S
C1327      H1332   1.110       .  S
C1327      H1333   1.109       .  S
C1330      H1334   1.109       .  S
C1330      H1335   1.110       .  S
C1330      H1336   1.111       .  S
C1337      C1338   1.398       .  A
C1337      C1342   1.408       .  A
C1337      H1344   1.084       .  S
C1338      C1339   1.411       .  A
C1339      C1340   1.404       .  A
C1339      C1346   1.508       .  S
C1340      C1341   1.410       .  A
C1340      H1345   1.083       .  S
C1341      C1342   1.428       .  A
C1342      C1343   1.509       .  S
C1343      H1347   1.111       .  S
C1343      H1348   1.110       .  S
C1343      H1349   1.110       .  S
C1346      H1350   1.109       .  S
C1346      H1351   1.110       .  S
C1346      H1352   1.111       .  S
C1353      C1354   1.411       .  A
C1353      C1358   1.406       .  A
C1353      H1360   1.083       .  S
C1354      C1355   1.426       .  A
C1355      C1356   1.406       .  A
C1355      C1362   1.506       .  S
C1356      C1357   1.399       .  A
C1356      H1361   1.084       .  S
C1357      C1358   1.410       .  A
C1358      C1359   1.507       .  S
C1359      H1363   1.111       .  S
C1359      H1364   1.109       .  S
C1359      H1365   1.110       .  S
C1362      H1366   1.108       .  S
C1362      H1367   1.110       .  S
C1362      H1368   1.111       .  S
C1369      C1370   1.409       .  A
C1369      C1374   1.399       .  A
C1369      H1376   1.084       .  S
C1370      C1371   1.423       .  A
C1371      C1372   1.405       .  A
C1371      C1378   1.508       .  S
C1372      C1373   1.399       .  A
C1372      H1377   1.084       .  S
C1373      C1374   1.408       .  A
C1374      C1375   1.508       .  S
C1375      H1379   1.111       .  S
C1375      H1380   1.110       .  S
C1375      H1381   1.110       .  S
C1378      H1382   1.110       .  S
C1378      H1383   1.110       .  S
C1378      H1384   1.111       .  S
C1385      C1386   1.401       .  A
C1385      C1390   1.406       .  A
C1385      H1392   1.084       .  S
C1386      C1387   1.407       .  A
C1387      C1388   1.399       .  A
C1387      C1394   1.508       .  S
C1388      C1389   1.409       .  A
C1388      H1393   1.084       .  S
C1389      C1390   1.420       .  A
C1390      C1391   1.506       .  S
C1391      H1395   1.111       .  S
C1391      H1396   1.105       .  S
C1391      H1397   1.110       .  S
C1394      H1398   1.110       .  S
C1394      H1399   1.110       .  S
C1394      H1400   1.111       .  S
C1401      C1402   1.412       .  A
C1401      C1406   1.404       .  A
C1401      H1408   1.084       .  S
C1402      C1403   1.425       .  A
C1403      C1404   1.410       .  A
C1403      C1410   1.508       .  S
C1404      C1405   1.402       .  A
C1404      H1409   1.084       .  S
C1405      C1406   1.412       .  A
C1406      C1407   1.508       .  S
C1407      H1411   1.111       .  S
C1407      H1412   1.110       .  S
C1407      H1413   1.108       .  S
C1410      H1414   1.110       .  S
C1410      H1415   1.110       .  S
C1410      H1416   1.111       .  S
C1417      C1418   1.410       .  A
C1417      C1422   1.408       .  A
C1417      H1424   1.083       .  S
C1418      C1419   1.429       .  A
C1419      C1420   1.406       .  A
C1419      C1426   1.510       .  S
C1420      C1421   1.398       .  A
C1420      H1425   1.084       .  S
C1421      C1422   1.411       .  A
C1422      C1423   1.506       .  S
C1423      H1427   1.111       .  S
C1423      H1428   1.109       .  S
C1423      H1429   1.110       .  S
C1426      H1430   1.110       .  S
C1426      H1431   1.110       .  S
C1426      H1432   1.111       .  S
C1433      C1434   1.407       .  A
C1433      C1438   1.402       .  A
C1433      H1440   1.085       .  S
C1434      C1435   1.417       .  A
C1435      C1436   1.407       .  A
C1435      C1442   1.507       .  S
C1436      C1437   1.403       .  A
C1436      H1441   1.084       .  S
C1437      C1438   1.412       .  A
C1438      C1439   1.508       .  S
C1439      H1443   1.110       .  S
C1439      H1444   1.108       .  S
C1439      H1445   1.110       .  S
C1442      H1446   1.110       .  S
C1442      H1447   1.109       .  S
C1442      H1448   1.111       .  S
C1449      C1450   1.400       .  A
C1449      C1454   1.406       .  A
C1449      H1456   1.084       .  S
C1450      C1451   1.407       .  A
C1451      C1452   1.400       .  A
C1451      C1458   1.507       .  S
C1452      C1453   1.408       .  A
C1452      H1457   1.084       .  S
C1453      C1454   1.420       .  A
C1454      C1455   1.507       .  S
C1455      H1459   1.111       .  S
C1455      H1460   1.110       .  S
C1455      H1461   1.108       .  S
C1458      H1462   1.110       .  S
C1458      H1463   1.110       .  S
C1458      H1464   1.111       .  S
C1465      C1466   1.398       .  A
C1465      C1470   1.406       .  A
C1465      H1472   1.084       .  S
C1466      C1467   1.407       .  A
C1467      C1468   1.402       .  A
C1467      C1474   1.507       .  S
C1468      C1469   1.410       .  A
C1468      H1473   1.083       .  S
C1469      C1470   1.428       .  A
C1470      C1471   1.510       .  S
C1471      H1475   1.111       .  S
C1471      H1476   1.110       .  S
C1471      H1477   1.110       .  S
C1474      H1478   1.110       .  S
C1474      H1479   1.110       .  S
C1474      H1480   1.111       .  S
C1481      C1482   1.402       .  A
C1481      C1486   1.412       .  A
C1481      H1488   1.084       .  S
C1482      C1483   1.413       .  A
C1483      C1484   1.406       .  A
C1483      C1490   1.508       .  S
C1484      C1485   1.409       .  A
C1484      H1489   1.084       .  S
C1485      C1486   1.425       .  A
C1486      C1487   1.508       .  S
C1487      H1491   1.111       .  S
C1487      H1492   1.110       .  S
C1487      H1493   1.110       .  S
C1490      H1494   1.108       .  S
C1490      H1495   1.110       .  S
C1490      H1496   1.110       .  S
C1497      C1498   1.407       .  A
C1497      C1502   1.404       .  A
C1497      H1504   1.085       .  S
C1498      C1499   1.416       .  A
C1499      C1500   1.410       .  A
C1499      C1506   1.505       .  S
C1500      C1501   1.405       .  A
C1500      H1505   1.084       .  S
C1501      C1502   1.413       .  A
C1502      C1503   1.508       .  S
C1503      H1507   1.110       .  S
C1503      H1508   1.110       .  S
C1503      H1509   1.108       .  S
C1506      H1510   1.110       .  S
C1506      H1511   1.107       .  S
C1506      H1512   1.111       .  S
C1513      C1514   1.401       .  A
C1513      C1518   1.407       .  A
C1513      H1520   1.084       .  S
C1514      C1515   1.410       .  A
C1515      C1516   1.398       .  A
C1515      C1522   1.509       .  S
C1516      C1517   1.409       .  A
C1516      H1521   1.084       .  S
C1517      C1518   1.422       .  A
C1518      C1519   1.508       .  S
C1519      H1523   1.111       .  S
C1519      H1524   1.110       .  S
C1519      H1525   1.110       .  S
C1522      H1526   1.110       .  S
C1522      H1527   1.107       .  S
C1522      H1528   1.111       .  S
C1529      C1530   1.400       .  A
C1529      C1534   1.405       .  A
C1529      H1536   1.085       .  S
C1530      C1531   1.410       .  A
C1531      C1532   1.406       .  A
C1531      C1538   1.506       .  S
C1532      C1533   1.412       .  A
C1532      H1537   1.084       .  S
C1533      C1534   1.426       .  A
C1534      C1535   1.511       .  S
C1535      H1539   1.111       .  S
C1535      H1540   1.110       .  S
C1535      H1541   1.110       .  S
C1538      H1542   1.110       .  S
C1538      H1543   1.108       .  S
C1538      H1544   1.110       .  S
C1545      C1546   1.412       .  A
C1545      C1550   1.410       .  A
C1545      H1552   1.083       .  S
C1546      C1547   1.425       .  A
C1547      C1548   1.404       .  A
C1547      C1554   1.509       .  S
C1548      C1549   1.401       .  A
C1548      H1553   1.084       .  S
C1549      C1550   1.413       .  A
C1550      C1551   1.507       .  S
C1551      H1555   1.111       .  S
C1551      H1556   1.110       .  S
C1551      H1557   1.108       .  S
C1554      H1558   1.110       .  S
C1554      H1559   1.108       .  S
C1554      H1560   1.111       .  S
