geometry optimzed in LAMMPS
_audit_creation_date              2020-12-01 
_audit_creation_method            'lammps2cif' 
_symmetry_space_group_name_H-M    'P1' 
_symmetry_Int_Tables_number       1 
_symmetry_cell_setting            triclinic 
loop_ 
_symmetry_equiv_pos_as_xyz 
  x,y,z 
_cell_length_a                    117.18750629 
_cell_length_b                    116.02964607990496 
_cell_length_c                    115.63026357797591 
_cell_angle_alpha                 89.85723778936914 
_cell_angle_beta                  89.81948376629728 
_cell_angle_gamma                 89.9251612209571 
loop_ 
_atom_site_label 
_atom_site_type_symbol 
_atom_site_fract_x 
_atom_site_fract_y 
_atom_site_fract_z 
_atom_site_charge 
C1          C  0.83795669  0.75146738  0.66243592     0.03800
C2          C  0.82852086  0.75882215  0.66102053    -0.12300
C3          C  0.81954278  0.75903512  0.66916795     0.01300
C4          C  0.81997759  0.75134961  0.67863739    -0.10900
C5          C  0.82922800  0.74365769  0.68010073     0.03800
C6          C  0.83827973  0.74399866  0.67203837    -0.10300
H7          H  0.82834169  0.76448382  0.65358621     0.09400
H8          H  0.81300503  0.75132036  0.68477888     0.06900
H9          H  0.84543777  0.73816831  0.67301954     0.06800
C10         C  0.83798956  0.66679361  0.74474793     0.03800
C11         C  0.82855318  0.66607358  0.75222364    -0.12300
C12         C  0.81990158  0.67448579  0.75204017     0.01300
C13         C  0.82068707  0.68357772  0.74393934    -0.10900
C14         C  0.82995616  0.68437318  0.73617963     0.03800
C15         C  0.83867093  0.67598561  0.73681178    -0.10300
H16         H  0.82805212  0.65899420  0.75833356     0.09400
H17         H  0.81410274  0.69009908  0.74362268     0.06900
H18         H  0.84590758  0.67639545  0.73100883     0.06800
C19         C  0.75474972  0.66485730  0.82760736     0.03800
C20         C  0.74654845  0.67370698  0.82721983    -0.12300
C21         C  0.74615179  0.68149147  0.81789351     0.01300
C22         C  0.75423930  0.68035737  0.80891414    -0.10900
C23         C  0.76260128  0.67162018  0.80915880     0.03800
C24         C  0.76266069  0.66380970  0.81851109    -0.10300
H25         H  0.74032412  0.67442797  0.83412083     0.09400
H26         H  0.75405920  0.68625553  0.80166687     0.06900
H27         H  0.76891930  0.65696302  0.81887227     0.06800
C28         C  0.67221333  0.74826599  0.82674931     0.03800
C29         C  0.68048878  0.73945543  0.82700876    -0.12300
C30         C  0.68863443  0.73835660  0.81806816     0.01300
C31         C  0.68844758  0.74634178  0.80886696    -0.10900
C32         C  0.68026242  0.75525033  0.80845028     0.03800
C33         C  0.67209993  0.75599031  0.81737958    -0.10300
H34         H  0.68051924  0.73346367  0.83417501     0.09400
H35         H  0.69473661  0.74557860  0.80205291     0.06900
H36         H  0.66576608  0.76279759  0.81720701     0.06800
C37         C  0.67140999  0.83177660  0.74380441     0.03800
C38         C  0.67110200  0.82283755  0.75203330    -0.12300
C39         C  0.67989242  0.81456586  0.75263618     0.01300
C40         C  0.68902033  0.81531663  0.74471756    -0.10900
C41         C  0.68948420  0.82415812  0.73630569     0.03800
C42         C  0.68069194  0.83243826  0.73609134    -0.10300
H43         H  0.66400445  0.82241310  0.75798832     0.09400
H44         H  0.69569815  0.80890479  0.74511910     0.06900
H45         H  0.68089581  0.83926246  0.72968283     0.06800
C46         C  0.75216743  0.83139976  0.65796348     0.03800
C47         C  0.76024434  0.82240104  0.65816505    -0.12300
C48         C  0.76043032  0.81432318  0.66727401     0.01300
C49         C  0.75221716  0.81532403  0.67617907    -0.10900
C50         C  0.74398287  0.82419735  0.67611981     0.03800
C51         C  0.74412268  0.83223857  0.66697754    -0.10300
H52         H  0.76657376  0.82183287  0.65134992     0.09400
H53         H  0.75221315  0.80923993  0.68326498     0.06900
H54         H  0.73794820  0.83916836  0.66676025     0.06800
N55         N  0.44529351  0.90302015  0.74116986    -0.26600
N56         N  0.44696938  0.91390160  0.73822883    -0.34500
C57         C  0.45804987  0.91564403  0.73600024     0.01700
C58         C  0.46382344  0.90543237  0.73762745     0.07800
C59         C  0.45550372  0.89752521  0.74096554    -0.05300
H60         H  0.46164657  0.92382236  0.73334894     0.08400
H61         H  0.45673493  0.88846380  0.74281001     0.09600
Cu62       Cu  0.43449828  0.92634084  0.73728925     0.44200
Cu63       Cu  0.42867648  0.89692739  0.74440699     0.42000
Cu64       Cu  0.40593985  0.92033183  0.74265829     0.43900
N65         N  0.42244344  0.93922148  0.73792222    -0.34000
N66         N  0.41160876  0.93734580  0.74039181    -0.28200
C67         C  0.40615619  0.94763829  0.74086898    -0.04300
C68         C  0.41403603  0.95629363  0.73842464     0.07900
C69         C  0.42422563  0.95055737  0.73659895     0.01700
H70         H  0.39717151  0.94873656  0.74273408     0.09300
H71         H  0.43244758  0.95435653  0.73470451     0.08400
N72         N  0.40301435  0.90252029  0.74412172    -0.35400
N73         N  0.41088252  0.89433189  0.74514774    -0.27600
C74         C  0.40556925  0.88404467  0.74604968    -0.02900
C75         C  0.39387331  0.88580341  0.74541916     0.05800
C76         C  0.39261072  0.89758342  0.74416440     0.03800
H77         H  0.40992168  0.87585274  0.74682275     0.09000
H78         H  0.38466096  0.90226838  0.74337200     0.07800
N79         N  0.59556739  0.93852475  0.73222440    -0.26600
N80         N  0.58461954  0.94045622  0.73044221    -0.34500
C81         C  0.58270812  0.95181266  0.72993547     0.01700
C82         C  0.59292123  0.95746983  0.73150468     0.07800
C83         C  0.60100117  0.94879258  0.73293814    -0.05300
H84         H  0.57438777  0.95568359  0.72874730     0.08400
H85         H  0.61002904  0.94984643  0.73450783     0.09600
Cu86       Cu  0.57247889  0.92773591  0.72974598     0.44200
Cu87       Cu  0.60134673  0.92156401  0.73382178     0.42000
Cu88       Cu  0.57858433  0.89843322  0.73648369     0.43900
N89         N  0.56003468  0.91537604  0.73127330    -0.34000
N90         N  0.56187631  0.90450886  0.73413496    -0.28200
C91         C  0.55168541  0.89905286  0.73473437    -0.04300
C92         C  0.54316329  0.90694942  0.73198841     0.07900
C93         C  0.54883551  0.91716280  0.72989231     0.01700
H94         H  0.55057186  0.89003860  0.73685834     0.09300
H95         H  0.54511656  0.92540437  0.72766531     0.08400
N96         N  0.59631569  0.89571419  0.73681611    -0.35400
N97         N  0.60418545  0.90383474  0.73548068    -0.27600
C98         C  0.61457424  0.89889589  0.73569242    -0.02900
C99         C  0.61328619  0.88716946  0.73736770     0.05800
C100        C  0.60161160  0.88544990  0.73807129     0.03800
H101        H  0.62251812  0.90357488  0.73487334     0.09000
H102        H  0.59727134  0.87731165  0.73928769     0.07800
N103        N  0.44294021  0.08939923  0.74585731    -0.26600
N104        N  0.44458177  0.07892157  0.74171671    -0.34500
C105        C  0.45579065  0.07690661  0.74067628     0.01700
C106        C  0.46164458  0.08652983  0.74431257     0.07800
C107        C  0.45324482  0.09437491  0.74754942    -0.05300
H108        H  0.45942752  0.06888763  0.73764081     0.08400
H109        H  0.45451580  0.10296938  0.75091447     0.09600
Cu110      Cu  0.43187427  0.06709011  0.73851340     0.44200
Cu111      Cu  0.42638462  0.09558860  0.74877413     0.42000
Cu112      Cu  0.40352682  0.07272095  0.74612996     0.43900
N113        N  0.41980994  0.05419005  0.73918805    -0.34000
N114        N  0.40921698  0.05584300  0.74272616    -0.28200
C115        C  0.40394913  0.04546044  0.74335724    -0.04300
C116        C  0.41169450  0.03700012  0.73990746     0.07900
C117        C  0.42158292  0.04292625  0.73731133     0.01700
H118        H  0.39520449  0.04417133  0.74606578     0.09300
H119        H  0.42964901  0.03925975  0.73459886     0.08400
N120        N  0.40073833  0.09059644  0.74779857    -0.35400
N121        N  0.40873096  0.09859157  0.74906497    -0.27600
C122        C  0.40366941  0.10903066  0.74966019    -0.02900
C123        C  0.39199709  0.10761229  0.74855815     0.05800
C124        C  0.39047031  0.09583301  0.74739111     0.03800
H125        H  0.40820007  0.11711002  0.75040442     0.09000
H126        H  0.38246057  0.09137190  0.74619474     0.07800
N127        N  0.59446746  0.05676706  0.73583087    -0.26600
N128        N  0.58361200  0.05528064  0.73327849    -0.34500
C129        C  0.58155712  0.04410865  0.73147655     0.01700
C130        C  0.59158996  0.03803887  0.73298299     0.07800
C131        C  0.59969513  0.04634992  0.73572784    -0.05300
H132        H  0.57319586  0.04067323  0.72958534     0.08400
H133        H  0.60859084  0.04490620  0.73774431     0.09600
Cu134      Cu  0.57156315  0.06807128  0.73369400     0.44200
Cu135      Cu  0.60028013  0.07338785  0.73949351     0.42000
Cu136      Cu  0.57694498  0.09628874  0.74299282     0.43900
N137        N  0.55868653  0.07954966  0.73702652    -0.34000
N138        N  0.56020054  0.09014205  0.74084339    -0.28200
C139        C  0.54979421  0.09488355  0.74282333    -0.04300
C140        C  0.54148412  0.08674278  0.74009874     0.07900
C141        C  0.54754277  0.07719944  0.73646312     0.01700
H142        H  0.54838029  0.10348721  0.74612379     0.09300
H143        H  0.54416012  0.06894540  0.73383551     0.08400
N144        N  0.59471576  0.09911683  0.74297751    -0.35400
N145        N  0.60275165  0.09114580  0.74158387    -0.27600
C146        C  0.61302251  0.09633722  0.74132292    -0.02900
C147        C  0.61147659  0.10807748  0.74266271     0.05800
C148        C  0.59979129  0.10951974  0.74374228     0.03800
H149        H  0.62104329  0.09185641  0.74013734     0.09000
H150        H  0.59527149  0.11759370  0.74471862     0.07800
N151        N  0.44808602  0.73755596  0.09074896    -0.26600
N152        N  0.45013600  0.73279848  0.08059139    -0.34500
C153        C  0.46137984  0.73128885  0.07922464     0.01700
C154        C  0.46684530  0.73531309  0.08894032     0.07800
C155        C  0.45817087  0.73925712  0.09616492    -0.05300
H156        H  0.46532307  0.72783552  0.07150101     0.08400
H157        H  0.45911702  0.74317497  0.10458421     0.09600
Cu158      Cu  0.43798352  0.72965850  0.06823585     0.44200
Cu159      Cu  0.43130231  0.74127673  0.09574519     0.42000
Cu160      Cu  0.40898011  0.73543535  0.07275442     0.43900
N161        N  0.42644865  0.72972084  0.05489817    -0.34000
N162        N  0.41549695  0.73203531  0.05620040    -0.28200
C163        C  0.41060583  0.73235809  0.04561226    -0.04300
C164        C  0.41900232  0.73016451  0.03736319     0.07900
C165        C  0.42889154  0.72853312  0.04364103     0.01700
H166        H  0.40172684  0.73433335  0.04401630     0.09300
H167        H  0.43737785  0.72696610  0.04029869     0.08400
N168        N  0.40578627  0.73963660  0.09012790    -0.35400
N169        N  0.41357738  0.74221682  0.09802028    -0.27600
C170        C  0.40824488  0.74473495  0.10805222    -0.02900
C171        C  0.39661944  0.74350549  0.10650660     0.05800
C172        C  0.39537597  0.74025572  0.09506649     0.03800
H173        H  0.41255736  0.74688764  0.11601686     0.09000
H174        H  0.38746172  0.73845382  0.09063132     0.07800
N175        N  0.59840613  0.74498327  0.05402626    -0.26600
N176        N  0.58762338  0.74222036  0.05230921    -0.34500
C177        C  0.58567560  0.74124060  0.04095467     0.01700
C178        C  0.59567432  0.74352460  0.03507560     0.07800
C179        C  0.60366313  0.74590297  0.04361660    -0.05300
H180        H  0.57748526  0.73911537  0.03723307     0.08400
H181        H  0.61255909  0.74804667  0.04237728     0.09600
Cu182      Cu  0.57568258  0.74048149  0.06527017     0.44200
Cu183      Cu  0.60444964  0.74701506  0.07090925     0.42000
Cu184      Cu  0.58159959  0.74787707  0.09428010     0.43900
N185        N  0.56320697  0.74119868  0.07779862    -0.34000
N186        N  0.56491923  0.74436886  0.08861207    -0.28200
C187        C  0.55473115  0.74432412  0.09420398    -0.04300
C188        C  0.54635233  0.74084260  0.08644074     0.07900
C189        C  0.55212469  0.73898115  0.07618144     0.01700
H190        H  0.55353821  0.74645875  0.10322894     0.09300
H191        H  0.54853560  0.73632428  0.06800566     0.08400
N192        N  0.59935983  0.74884865  0.09692857    -0.35400
N193        N  0.60732229  0.74811729  0.08876296    -0.27600
C194        C  0.61767742  0.74814338  0.09380764    -0.02900
C195        C  0.61625752  0.74907782  0.10564492     0.05800
C196        C  0.60454608  0.74954984  0.10730626     0.03800
H197        H  0.62569000  0.74754183  0.08916712     0.09000
H198        H  0.60009342  0.75004335  0.11549883     0.07800
N199        N  0.59800398  0.74286807  0.93531643    -0.26600
N200        N  0.58755203  0.73891493  0.93677220    -0.34500
C201        C  0.58538934  0.73757720  0.94806157     0.01700
C202        C  0.59492759  0.74088117  0.95420673     0.07800
C203        C  0.60284330  0.74418614  0.94584393    -0.05300
H204        H  0.57723683  0.73485778  0.95150461     0.08400
H205        H  0.61131010  0.74756657  0.94730961     0.09600
Cu206      Cu  0.57589599  0.73737311  0.92369030     0.44200
Cu207      Cu  0.60385183  0.74661457  0.91861776     0.42000
Cu208      Cu  0.58084612  0.74903006  0.89577174     0.43900
N209        N  0.56305009  0.74021746  0.91203320    -0.34000
N210        N  0.56436601  0.74498566  0.90173904    -0.28200
C211        C  0.55391830  0.74623745  0.89689000    -0.04300
C212        C  0.54579733  0.74196894  0.90460674     0.07900
C213        C  0.55198355  0.73828842  0.91405841     0.01700
H214        H  0.55235802  0.74989709  0.88842779     0.09300
H215        H  0.54870764  0.73465331  0.92202312     0.08400
N216        N  0.59854444  0.75043286  0.89288105    -0.35400
N217        N  0.60656599  0.74924103  0.90088313    -0.27600
C218        C  0.61688283  0.74981257  0.89574239    -0.02900
C219        C  0.61538406  0.75157760  0.88401846     0.05800
C220        C  0.60365501  0.75194886  0.88251124     0.03800
H221        H  0.62492728  0.74891592  0.90023043     0.09000
H222        H  0.59914716  0.75288016  0.87441225     0.07800
N223        N  0.41448306  0.73465107  0.93767436    -0.26600
N224        N  0.42526336  0.73164127  0.93904156    -0.34500
C225        C  0.42730450  0.72966560  0.95026564     0.01700
C226        C  0.41736507  0.73151940  0.95640720     0.07800
C227        C  0.40931946  0.73466787  0.94816051    -0.05300
H228        H  0.43558059  0.72744918  0.95376132     0.08400
H229        H  0.40052687  0.73707036  0.94968555     0.09600
Cu230      Cu  0.43721147  0.73180006  0.92595025     0.44200
Cu231      Cu  0.40833951  0.73893289  0.92124556     0.42000
Cu232      Cu  0.43054082  0.74379078  0.89830767     0.43900
N233        N  0.44941082  0.73576826  0.91372651    -0.34000
N234        N  0.44729903  0.74075374  0.90367184    -0.28200
C235        C  0.45735230  0.74300607  0.89835334    -0.04300
C236        C  0.46608647  0.73916041  0.90548935     0.07900
C237        C  0.46069828  0.73462154  0.91508286     0.01700
H238        H  0.45822455  0.74710646  0.88998722     0.09300
H239        H  0.46471073  0.73099139  0.92268412     0.08400
N240        N  0.41288375  0.74384324  0.89559525    -0.35400
N241        N  0.40506458  0.74196125  0.90369909    -0.27600
C242        C  0.39468265  0.74192291  0.89873378    -0.02900
C243        C  0.39597038  0.74389360  0.88698725     0.05800
C244        C  0.40761054  0.74510048  0.88531897     0.03800
H245        H  0.38677713  0.74043192  0.90335347     0.09000
H246        H  0.41196210  0.74653356  0.87717841     0.07800
C247        C  0.33526420  0.83057548  0.74544829     0.03800
C248        C  0.32657780  0.83043238  0.73704757    -0.12300
C249        C  0.31858085  0.82136768  0.73666938     0.01300
C250        C  0.31923856  0.81257261  0.74506986    -0.10900
C251        C  0.32772991  0.81264939  0.75366396     0.03800
C252        C  0.33579150  0.82160639  0.75362886    -0.10300
H253        H  0.32622250  0.83721953  0.73061503     0.09400
H254        H  0.31316214  0.80561479  0.74490026     0.06900
H255        H  0.34242995  0.82171403  0.76013127     0.06800
C256        C  0.33944314  0.74741882  0.82968667     0.03800
C257        C  0.33993654  0.75565839  0.82073659    -0.12300
C258        C  0.33117304  0.75644247  0.81245856     0.01300
C259        C  0.32202209  0.74862312  0.81310432    -0.10900
C260        C  0.32137405  0.74026181  0.82190483     0.03800
C261        C  0.33008733  0.73985133  0.83027724    -0.10300
H262        H  0.34702973  0.76160136  0.82043529     0.09400
H263        H  0.31530232  0.74907505  0.80670939     0.06900
H264        H  0.32981237  0.73350221  0.83712979     0.06800
C265        C  0.25288040  0.66932865  0.82767611     0.03800
C266        C  0.26098785  0.67822107  0.82773393    -0.12300
C267        C  0.26133951  0.68652562  0.81887546     0.01300
C268        C  0.25319388  0.68595660  0.80993481    -0.10900
C269        C  0.24488961  0.67714421  0.80975907     0.03800
C270        C  0.24496830  0.66877886  0.81860740    -0.10300
H271        H  0.26722829  0.67853600  0.83460879     0.09400
H272        H  0.25327252  0.69240127  0.80319574     0.06900
H273        H  0.23868940  0.66193122  0.81859908     0.06800
C274        C  0.16913512  0.66368791  0.74626069     0.03800
C275        C  0.16824978  0.67282458  0.73829492    -0.12300
C276        C  0.17633550  0.68180708  0.73812425     0.01300
C277        C  0.18518838  0.68166971  0.74633093    -0.10900
C278        C  0.18612249  0.67275019  0.75454300     0.03800
C279        C  0.17810615  0.66370942  0.75431919    -0.10300
H280        H  0.16129794  0.67279518  0.73216337     0.09400
H281        H  0.19138878  0.68858465  0.74635158     0.06900
H282        H  0.17867580  0.65675492  0.76051498     0.06800
C283        C  0.17148674  0.74803037  0.66332057     0.03800
C284        C  0.18070793  0.75578925  0.66288418    -0.12300
C285        C  0.18897327  0.75597429  0.67168762     0.01300
C286        C  0.18801132  0.74803829  0.68088301    -0.10900
C287        C  0.17887927  0.74015724  0.68148849     0.03800
C288        C  0.17059444  0.74034731  0.67270264    -0.10300
H289        H  0.18132333  0.76186050  0.65578033     0.09400
H290        H  0.19435642  0.74802717  0.68759763     0.06900
H291        H  0.16350571  0.73436615  0.67304922     0.06800
C292        C  0.25245085  0.83248806  0.66279001     0.03800
C293        C  0.26075839  0.83242634  0.67148239    -0.12300
C294        C  0.26121340  0.82354741  0.67977057     0.01300
C295        C  0.25293447  0.81474246  0.67935268    -0.10900
C296        C  0.24445177  0.81466524  0.67070430     0.03800
C297        C  0.24443545  0.82354623  0.66235949    -0.10300
H298        H  0.26706617  0.83920331  0.67149720     0.09400
H299        H  0.25312563  0.80790883  0.68574791     0.06900
H300        H  0.23813983  0.82369101  0.65555305     0.06800
N301        N  0.76370811  0.40708444  0.93735190    -0.26600
N302        N  0.76804139  0.41747326  0.93887077    -0.34500
C303        C  0.77020742  0.41907003  0.95010497     0.01700
C304        C  0.76708580  0.40926535  0.95606556     0.07800
C305        C  0.76297678  0.40175373  0.94773916    -0.05300
H306        H  0.77357968  0.42695242  0.95371183     0.08400
H307        H  0.75964310  0.39316557  0.94911509     0.09600
Cu308      Cu  0.77011801  0.42967887  0.92606813     0.44200
Cu309      Cu  0.75905989  0.40150919  0.92093939     0.42000
Cu310      Cu  0.76005439  0.42492086  0.89813178     0.43900
N311        N  0.76950023  0.44261324  0.91385116    -0.34000
N312        N  0.76518119  0.44120461  0.90343246    -0.28200
C313        C  0.76468990  0.45155935  0.89808579    -0.04300
C314        C  0.76903293  0.45978595  0.90557254     0.07900
C315        C  0.77201440  0.45375500  0.91543718     0.01700
H316        H  0.76120570  0.45302076  0.88955323     0.09300
H317        H  0.77518211  0.45727649  0.92345953     0.08400
N318        N  0.75682639  0.40752429  0.89532812    -0.35400
N319        N  0.75630692  0.39928784  0.90328761    -0.27600
C320        C  0.75449664  0.38912924  0.89800186    -0.02900
C321        C  0.75397842  0.39105717  0.88622225     0.05800
C322        C  0.75546937  0.40277902  0.88483869     0.03800
H323        H  0.75403908  0.38089537  0.90238676     0.09000
H324        H  0.75579802  0.40752580  0.87678128     0.07800
N325        N  0.75800447  0.59250270  0.93815516    -0.26600
N326        N  0.76295841  0.58234461  0.93937776    -0.34500
C327        C  0.76497869  0.58032742  0.95057146     0.01700
C328        C  0.76108401  0.58958850  0.95693980     0.07800
C329        C  0.75672806  0.59725396  0.94877879    -0.05300
H330        H  0.76861119  0.57239354  0.95381537     0.08400
H331        H  0.75267212  0.60546398  0.95046042     0.09600
Cu332      Cu  0.76534188  0.57040355  0.92647394     0.44200
Cu333      Cu  0.75323146  0.59830460  0.92166487     0.42000
Cu334      Cu  0.75485292  0.57498032  0.89883768     0.43900
N335        N  0.76398289  0.55716028  0.91475813    -0.34000
N336        N  0.75950565  0.55854655  0.90439716    -0.28200
C337        C  0.75892836  0.54816837  0.89916034    -0.04300
C338        C  0.76334446  0.53995733  0.90668614     0.07900
C339        C  0.76647152  0.54599799  0.91643963     0.01700
H340        H  0.75562063  0.54672850  0.89056320     0.09300
H341        H  0.77005087  0.54249594  0.92431691     0.08400
N342        N  0.75264713  0.59258084  0.89581001    -0.35400
N343        N  0.75179824  0.60080280  0.90372788    -0.27600
C344        C  0.75115966  0.61108599  0.89829034    -0.02900
C345        C  0.75181918  0.60926383  0.88647851     0.05800
C346        C  0.75271413  0.59745449  0.88524592     0.03800
H347        H  0.75085609  0.61932561  0.90263825     0.09000
H348        H  0.75370596  0.59272496  0.87725446     0.07800
N349        N  0.77100616  0.44173291  0.08936929    -0.26600
N350        N  0.77532096  0.44318824  0.07891317    -0.34500
C351        C  0.77832623  0.45425530  0.07749398     0.01700
C352        C  0.77573650  0.46014915  0.08754594     0.07800
C353        C  0.77107721  0.45195067  0.09491989    -0.05300
H354        H  0.78166401  0.45782171  0.06952207     0.08400
H355        H  0.76776136  0.45335764  0.10354430     0.09600
Cu356      Cu  0.77556402  0.43037088  0.06661420     0.44200
Cu357      Cu  0.76500854  0.42567652  0.09466960     0.42000
Cu358      Cu  0.76264322  0.40285233  0.07185073     0.43900
N359        N  0.77280848  0.41828780  0.05390225    -0.34000
N360        N  0.76779551  0.40821248  0.05545781    -0.28200
C361        C  0.76641755  0.40313887  0.04504498    -0.04300
C362        C  0.77077670  0.41047862  0.03663438     0.07900
C363        C  0.77476478  0.41993596  0.04261639     0.01700
H364        H  0.76227520  0.39492907  0.04368137     0.09300
H365        H  0.77841055  0.42772383  0.03904275     0.08400
N366        N  0.75925950  0.40053991  0.08940738    -0.35400
N367        N  0.76036092  0.40855660  0.09747875    -0.27600
C368        C  0.75861863  0.40370512  0.10791146    -0.02900
C369        C  0.75622491  0.39216712  0.10636001     0.05800
C370        C  0.75663727  0.39045188  0.09453616     0.03800
H371        H  0.75939144  0.40819117  0.11606214     0.09000
H372        H  0.75572527  0.38235189  0.09002255     0.07800
N373        N  0.75925426  0.59110714  0.05688704    -0.26600
N374        N  0.76384872  0.58087611  0.05505472    -0.34500
C375        C  0.76532624  0.57928923  0.04367790     0.01700
C376        C  0.76146505  0.58895558  0.03792190     0.07800
C377        C  0.75766952  0.59636427  0.04655526    -0.05300
H378        H  0.76870444  0.57149474  0.03985005     0.08400
H379        H  0.75388579  0.60479928  0.04541411     0.09600
Cu380      Cu  0.76704940  0.56899351  0.06788599     0.44200
Cu381      Cu  0.75555466  0.59646003  0.07375372     0.42000
Cu382      Cu  0.75958323  0.57425481  0.09723269     0.43900
N383        N  0.76799622  0.55656715  0.08057331    -0.34000
N384        N  0.76477048  0.55808729  0.09141628    -0.28200
C385        C  0.76583604  0.54797097  0.09713064    -0.04300
C386        C  0.77005704  0.53984945  0.08942014     0.07900
C387        C  0.77132381  0.54562474  0.07907371     0.01700
H388        H  0.76379263  0.54666492  0.10616721     0.09300
H389        H  0.77420233  0.54206332  0.07093327     0.08400
N390        N  0.75639914  0.59175399  0.09985295    -0.35400
N391        N  0.75472509  0.59951567  0.09158442    -0.27600
C392        C  0.75343863  0.60994260  0.09650243    -0.02900
C393        C  0.75447451  0.60874016  0.10836607     0.05800
C394        C  0.75634605  0.59711490  0.11017611     0.03800
H395        H  0.75232007  0.61789087  0.09172837     0.09000
H396        H  0.75782478  0.59288121  0.11838519     0.07800
N397        N  0.05901351  0.40483220  0.75033212    -0.26600
N398        N  0.05741202  0.41553147  0.75384662    -0.34500
C399        C  0.04625368  0.41752725  0.75524545     0.01700
C400        C  0.04036668  0.40763698  0.75253935     0.07800
C401        C  0.04869795  0.39966269  0.74941844    -0.05300
H402        H  0.04268746  0.42562366  0.75815554     0.08400
H403        H  0.04738929  0.39078860  0.74690434     0.09600
Cu404      Cu  0.07015165  0.42727851  0.75672417     0.44200
Cu405      Cu  0.07562435  0.39867476  0.74762815     0.42000
Cu406      Cu  0.09891575  0.42114734  0.75148292     0.43900
N407        N  0.08253797  0.43972291  0.75744856    -0.34000
N408        N  0.09339113  0.43786430  0.75503385    -0.28200
C409        C  0.09896041  0.44807069  0.75520892    -0.04300
C410        C  0.09108133  0.45662037  0.75793969     0.07900
C411        C  0.08083777  0.45096549  0.75932921     0.01700
H412        H  0.10793582  0.44918878  0.75333117     0.09300
H413        H  0.07261076  0.45480367  0.76115526     0.08400
N414        N  0.10134838  0.40351619  0.74879145    -0.35400
N415        N  0.09328457  0.39568202  0.74706668    -0.27600
C416        C  0.09830755  0.38533412  0.74552831    -0.02900
C417        C  0.11000135  0.38669832  0.74647213     0.05800
C418        C  0.11159834  0.39828572  0.74857379     0.03800
H419        H  0.09375055  0.37736003  0.74412575     0.09000
H420        H  0.11966096  0.40263791  0.74984310     0.07800
N421        N  0.06149949  0.58987352  0.75187353    -0.26600
N422        N  0.05963845  0.57988575  0.75703163    -0.34500
C423        C  0.04845102  0.57859478  0.75902486     0.01700
C424        C  0.04281628  0.58819805  0.75492139     0.07800
C425        C  0.05134027  0.59524953  0.75038640    -0.05300
H426        H  0.04466137  0.57106692  0.76302250     0.08400
H427        H  0.05025318  0.60362669  0.74640871     0.09600
Cu428      Cu  0.07213557  0.56790051  0.76033303     0.44200
Cu429      Cu  0.07826850  0.59482312  0.74782667     0.42000
Cu430      Cu  0.10087333  0.57185497  0.75146711     0.43900
N431        N  0.08377877  0.55466893  0.75976241    -0.34000
N432        N  0.09438843  0.55569454  0.75603322    -0.28200
C433        C  0.09913408  0.54507437  0.75556189    -0.04300
C434        C  0.09101930  0.53710610  0.75917761     0.07900
C435        C  0.08144820  0.54355799  0.76178617     0.01700
H436        H  0.10769410  0.54326372  0.75254083     0.09300
H437        H  0.07317882  0.54041629  0.76450935     0.08400
N438        N  0.10395812  0.58937257  0.74840929    -0.35400
N439        N  0.09600329  0.59737862  0.74686108    -0.27600
C440        C  0.10115945  0.60765653  0.74541804    -0.02900
C441        C  0.11285755  0.60612058  0.74619421     0.05800
C442        C  0.11430915  0.59443672  0.74810557     0.03800
H443        H  0.09667473  0.61572982  0.74427774     0.09000
H444        H  0.12231471  0.58994664  0.74934504     0.07800
N445        N  0.94444163  0.59005161  0.75335921    -0.26600
N446        N  0.94610638  0.57946176  0.75722881    -0.34500
C447        C  0.95727147  0.57770481  0.75893679     0.01700
C448        C  0.96310646  0.58762521  0.75598440     0.07800
C449        C  0.95470859  0.59532355  0.75240709    -0.05300
H450        H  0.96086874  0.56967343  0.76199923     0.08400
H451        H  0.95595023  0.60411153  0.74952555     0.09600
Cu452      Cu  0.93343620  0.56741546  0.75975699     0.44200
Cu453      Cu  0.92784887  0.59616647  0.75027198     0.42000
Cu454      Cu  0.90467346  0.57394537  0.75375324     0.43900
N455        N  0.92076683  0.55513270  0.76023516    -0.34000
N456        N  0.91001225  0.55719966  0.75757058    -0.28200
C457        C  0.90418397  0.54714773  0.75790272    -0.04300
C458        C  0.91174496  0.53846341  0.76104229     0.07900
C459        C  0.92211203  0.54387938  0.76247373     0.01700
H460        H  0.89519681  0.54624588  0.75603240     0.09300
H461        H  0.93015922  0.53987190  0.76468202     0.08400
N462        N  0.90210746  0.59153816  0.75080119    -0.35400
N463        N  0.91020871  0.59940696  0.74943114    -0.27600
C464        C  0.90521329  0.60979048  0.74793422    -0.02900
C465        C  0.89347700  0.60841600  0.74843231     0.05800
C466        C  0.89184806  0.59674133  0.75025205     0.03800
H467        H  0.90979952  0.61779654  0.74678154     0.09000
H468        H  0.88377924  0.59232043  0.75124614     0.07800
N469        N  0.90885571  0.43934093  0.76110436    -0.26600
N470        N  0.91948701  0.44089264  0.76448033    -0.34500
C471        C  0.92142406  0.45213288  0.76608135     0.01700
C472        C  0.91155506  0.45814543  0.76358182     0.07800
C473        C  0.90369567  0.44976484  0.76038905    -0.05300
H474        H  0.92957601  0.45565883  0.76864093     0.08400
H475        H  0.89493492  0.45113479  0.75780280     0.09600
Cu476      Cu  0.93135470  0.42793979  0.76586014     0.44200
Cu477      Cu  0.90294374  0.42261697  0.75800128     0.42000
Cu478      Cu  0.92583483  0.39939037  0.75728416     0.43900
N479        N  0.94403397  0.41588033  0.76388114    -0.34000
N480        N  0.94238194  0.40524518  0.76024315    -0.28200
C481        C  0.95266388  0.40016792  0.75866116    -0.04300
C482        C  0.96107602  0.40810585  0.76148042     0.07900
C483        C  0.95522305  0.41790811  0.76476923     0.01700
H484        H  0.95392196  0.39151673  0.75542140     0.09300
H485        H  0.95879142  0.42615985  0.76714185     0.08400
N486        N  0.90826790  0.39679255  0.75576802    -0.35400
N487        N  0.90022201  0.40484522  0.75623721    -0.27600
C488        C  0.88995229  0.39973167  0.75523980    -0.02900
C489        C  0.89159755  0.38800091  0.75394181     0.05800
C490        C  0.90328744  0.38645266  0.75433234     0.03800
H491        H  0.88187251  0.40425776  0.75530642     0.09000
H492        H  0.90787273  0.37838008  0.75371353     0.07800
C493        C  0.75152812  0.33429878  0.82914187     0.03800
C494        C  0.74368944  0.32518850  0.82950404    -0.12300
C495        C  0.74351790  0.31681256  0.82074986     0.01300
C496        C  0.75159811  0.31749855  0.81174243    -0.10900
C497        C  0.75965365  0.32648491  0.81131593     0.03800
C498        C  0.75935924  0.33499819  0.81997001    -0.10300
H499        H  0.73764553  0.32477965  0.83656592     0.09400
H500        H  0.75164510  0.31097789  0.80505540     0.06900
H501        H  0.76533363  0.34209292  0.81978268     0.06800
C502        C  0.83521336  0.33119511  0.74766303     0.03800
C503        C  0.82595252  0.33119718  0.75537546    -0.12300
C504        C  0.81743716  0.32272022  0.75481987     0.01300
C505        C  0.81826323  0.31413812  0.74623153    -0.10900
C506        C  0.82751885  0.31392537  0.73838494     0.03800
C507        C  0.83604287  0.32245528  0.73931847    -0.10300
H508        H  0.82543450  0.33780864  0.76195142     0.09400
H509        H  0.81174197  0.30758299  0.74562906     0.06900
H510        H  0.84323497  0.32252534  0.73345089     0.06800
C511        C  0.66946992  0.25160577  0.82445169     0.03800
C512        C  0.66929963  0.24342448  0.81549548    -0.12300
C513        C  0.67800385  0.24308135  0.80708901     0.01300
C514        C  0.68690440  0.25119961  0.80767761    -0.10900
C515        C  0.68727784  0.25942511  0.81660512     0.03800
C516        C  0.67852652  0.25950097  0.82495857    -0.10300
H517        H  0.66247740  0.23715581  0.81517646     0.09400
H518        H  0.69355889  0.25108335  0.80122753     0.06900
H519        H  0.67870456  0.26579183  0.83186155     0.06800
C520        C  0.66724515  0.16607562  0.74380349     0.03800
C521        C  0.66680354  0.17527641  0.75169207    -0.12300
C522        C  0.67552176  0.18362595  0.75197838     0.01300
C523        C  0.68456768  0.18279307  0.74399977    -0.10900
C524        C  0.68513714  0.17371403  0.73597541     0.03800
C525        C  0.67648927  0.16529701  0.73608807    -0.10300
H526        H  0.65976314  0.17575028  0.75771535     0.09400
H527        H  0.69124172  0.18924234  0.74406217     0.06900
H528        H  0.67673669  0.15821616  0.73003634     0.06800
C529        C  0.75230962  0.16754490  0.66285108     0.03800
C530        C  0.76085638  0.17602972  0.66318016    -0.12300
C531        C  0.76125636  0.18408681  0.67220529     0.01300
C532        C  0.75277293  0.18377790  0.68081953    -0.10900
C533        C  0.74403152  0.17546822  0.68059391     0.03800
C534        C  0.74400068  0.16726191  0.67164451    -0.10300
H535        H  0.76741455  0.17617769  0.65656307     0.09400
H536        H  0.75295933  0.19008455  0.68764554     0.06900
H537        H  0.73737521  0.16076053  0.67137991     0.06800
C538        C  0.83701247  0.24798314  0.66352740     0.03800
C539        C  0.82823832  0.23976097  0.66312562    -0.12300
C540        C  0.81966649  0.23944369  0.67164295     0.01300
C541        C  0.81984879  0.24762220  0.68056862    -0.10900
C542        C  0.82839436  0.25614565  0.68109394     0.03800
C543        C  0.83705384  0.25614287  0.67256877    -0.10300
H544        H  0.82829300  0.23342316  0.65627846     0.09400
H545        H  0.81316815  0.24734295  0.68701442     0.06900
H546        H  0.84367146  0.26263710  0.67282666     0.06800
N547        N  0.40936717  0.24585566  0.93061946    -0.26600
N548        N  0.42010141  0.24282625  0.93232169    -0.34500
C549        C  0.42190338  0.24117301  0.94362750     0.01700
C550        C  0.41188168  0.24326558  0.94953014     0.07800
C551        C  0.40400698  0.24622746  0.94102395    -0.05300
H552        H  0.43005362  0.23880568  0.94731941     0.08400
H553        H  0.39514270  0.24849858  0.94229424     0.09600
Cu554      Cu  0.43243852  0.24189890  0.91964344     0.44200
Cu555      Cu  0.40351525  0.24917582  0.91377153     0.42000
Cu556      Cu  0.42674897  0.24866421  0.89075572     0.43900
N557        N  0.44530055  0.24383175  0.90762444    -0.34000
N558        N  0.44352830  0.24672948  0.89673441    -0.28200
C559        C  0.45378004  0.24813473  0.89146889    -0.04300
C560        C  0.46230055  0.24595491  0.89955919     0.07900
C561        C  0.45654297  0.24324371  0.90963324     0.01700
H562        H  0.45493850  0.25062350  0.88252237     0.09300
H563        H  0.46026859  0.24125230  0.91795278     0.08400
N564        N  0.40911545  0.24996864  0.88778700    -0.35400
N565        N  0.40098774  0.25052980  0.89579858    -0.27600
C566        C  0.39079275  0.25147033  0.89047393    -0.02900
C567        C  0.39252631  0.25133402  0.87861847     0.05800
C568        C  0.40422793  0.25036649  0.87725774     0.03800
H569        H  0.38266616  0.25194411  0.89492035     0.09000
H570        H  0.40889083  0.25000871  0.86917852     0.07800
N571        N  0.59447259  0.25649039  0.93364167    -0.26600
N572        N  0.58362386  0.25408021  0.93554731    -0.34500
C573        C  0.58180516  0.25301337  0.94694624     0.01700
C574        C  0.59197074  0.25485597  0.95271770     0.07800
C575        C  0.59988243  0.25711902  0.94397907    -0.05300
H576        H  0.57361319  0.25094371  0.95073495     0.08400
H577        H  0.60891029  0.25870761  0.94503652     0.09600
Cu578      Cu  0.57153713  0.25219692  0.92268145     0.44200
Cu579      Cu  0.60045102  0.25768272  0.91653116     0.42000
Cu580      Cu  0.57787225  0.25397541  0.89291832     0.43900
N581        N  0.55902578  0.25160542  0.91011635    -0.34000
N582        N  0.56095414  0.25256166  0.89889963    -0.28200
C583        C  0.55079297  0.25209395  0.89331763    -0.04300
C584        C  0.54217056  0.25064343  0.90153063     0.07900
C585        C  0.54780932  0.25040075  0.91201642     0.01700
H586        H  0.54977573  0.25252117  0.88403051     0.09300
H587        H  0.54403406  0.24947381  0.92051329     0.08400
N588        N  0.59567539  0.25491490  0.89045452    -0.35400
N589        N  0.60346342  0.25653817  0.89861967    -0.27600
C590        C  0.61387231  0.25682926  0.89362140    -0.02900
C591        C  0.61265951  0.25521609  0.88183101     0.05800
C592        C  0.60103672  0.25399156  0.88015434     0.03800
H593        H  0.62178425  0.25791683  0.89829074     0.09000
H594        H  0.59676070  0.25259280  0.87200078     0.07800
N595        N  0.44648954  0.24332631  0.08263304    -0.26600
N596        N  0.44824820  0.24053553  0.07171065    -0.34500
C597        C  0.45947827  0.23938288  0.06978576     0.01700
C598        C  0.46523152  0.24159239  0.07997095     0.07800
C599        C  0.45671612  0.24411147  0.08798247    -0.05300
H600        H  0.46316584  0.23722907  0.06147983     0.08400
H601        H  0.45786427  0.24625663  0.09700238     0.09600
Cu602      Cu  0.43540030  0.23896337  0.05964885     0.44200
Cu603      Cu  0.42982478  0.24555500  0.08886531     0.42000
Cu604      Cu  0.40637078  0.24512369  0.06639554     0.43900
N605        N  0.42269450  0.23940974  0.04733864    -0.34000
N606        N  0.41189537  0.24197771  0.04937618    -0.28200
C607        C  0.40626485  0.24215542  0.03914455    -0.04300
C608        C  0.41399778  0.23950938  0.03036353     0.07900
C609        C  0.42426729  0.23783585  0.03598276     0.01700
H610        H  0.39730571  0.24416131  0.03815777     0.09300
H611        H  0.43245298  0.23592342  0.03210813     0.08400
N612        N  0.40403700  0.24705345  0.08434699    -0.35400
N613        N  0.41225922  0.24686133  0.09222185    -0.27600
C614        C  0.40749515  0.24769724  0.10281425    -0.02900
C615        C  0.39577770  0.24860813  0.10160996     0.05800
C616        C  0.39390553  0.24821398  0.08980294     0.03800
H617        H  0.41224449  0.24770433  0.11082223     0.09000
H618        H  0.38572674  0.24847241  0.08549014     0.07800
N619        N  0.59712558  0.25100779  0.05279602    -0.26600
N620        N  0.58688595  0.24671506  0.05079482    -0.34500
C621        C  0.58529408  0.24581788  0.03935744     0.01700
C622        C  0.59492416  0.24976474  0.03369208     0.07800
C623        C  0.60234083  0.25301517  0.04249438    -0.05300
H624        H  0.57751008  0.24274809  0.03541569     0.08400
H625        H  0.61079041  0.25662051  0.04149283     0.09600
Cu626      Cu  0.57486543  0.24314683  0.06347567     0.44200
Cu627      Cu  0.60256944  0.25362557  0.06989894     0.42000
Cu628      Cu  0.57958579  0.25019689  0.09274990     0.43900
N629        N  0.56206081  0.24266484  0.07584519    -0.34000
N630        N  0.56341069  0.24585976  0.08670641    -0.28200
C631        C  0.55310239  0.24583975  0.09202368    -0.04300
C632        C  0.54497514  0.24238927  0.08401897     0.07900
C633        C  0.55101571  0.24040442  0.07394702     0.01700
H634        H  0.55162472  0.24834478  0.10090849     0.09300
H635        H  0.54754098  0.23799906  0.06564000     0.08400
N636        N  0.59696090  0.25260181  0.09585520    -0.35400
N637        N  0.60507043  0.25388791  0.08791733    -0.27600
C638        C  0.61521308  0.25477551  0.09332934    -0.02900
C639        C  0.61342575  0.25394483  0.10514758     0.05800
C640        C  0.60176951  0.25258393  0.10641133     0.03800
H641        H  0.62334000  0.25569814  0.08895761     0.09000
H642        H  0.59709451  0.25149050  0.11441832     0.07800
N643        N  0.26043481  0.44110179  0.08722902    -0.26600
N644        N  0.26581637  0.44303683  0.07735591    -0.34500
C645        C  0.26824561  0.45427825  0.07645083     0.01700
C646        C  0.26413898  0.45979749  0.08614903     0.07800
C647        C  0.25918456  0.45122075  0.09286246    -0.05300
H648        H  0.27249748  0.45819525  0.06911288     0.08400
H649        H  0.25515357  0.45221584  0.10122794     0.09600
Cu650      Cu  0.26864144  0.43080372  0.06478426     0.44200
Cu651      Cu  0.25557384  0.42449306  0.09209100     0.42000
Cu652      Cu  0.25771887  0.40256036  0.06875564     0.43900
N653        N  0.26672975  0.41936539  0.05133409    -0.34000
N654        N  0.26223757  0.40899188  0.05246981    -0.28200
C655        C  0.26092904  0.40437710  0.04183415    -0.04300
C656        C  0.26480080  0.41230349  0.03370425     0.07900
C657        C  0.26842734  0.42165826  0.04009372     0.01700
H658        H  0.25716635  0.39604546  0.04013381     0.09300
H659        H  0.27163761  0.42977660  0.03683145     0.08400
N660        N  0.25424540  0.39894484  0.08615578    -0.35400
N661        N  0.25319472  0.40680262  0.09439449    -0.27600
C662        C  0.25125544  0.40143493  0.10454941    -0.02900
C663        C  0.25118411  0.38965706  0.10267466     0.05800
C664        C  0.25312009  0.38839676  0.09093284     0.03800
H665        H  0.25044195  0.40579137  0.11277321     0.09000
H666        H  0.25389377  0.38038318  0.08623259     0.07800
N667        N  0.26585329  0.55849522  0.08825899    -0.26600
N668        N  0.27087135  0.55659165  0.07819193    -0.34500
C669        C  0.27290994  0.54529934  0.07701295     0.01700
C670        C  0.26889568  0.53968933  0.08673934     0.07800
C671        C  0.26440871  0.54828981  0.09372333    -0.05300
H672        H  0.27665458  0.54142541  0.06939008     0.08400
H673        H  0.26044590  0.54722295  0.10211873     0.09600
Cu674      Cu  0.27351688  0.56889045  0.06562944     0.44200
Cu675      Cu  0.26166156  0.57515678  0.09360620     0.42000
Cu676      Cu  0.26496301  0.59758250  0.07076785     0.43900
N677        N  0.27243882  0.58097392  0.05262714    -0.34000
N678        N  0.26890076  0.59165272  0.05424525    -0.28200
C679        C  0.26842753  0.59704964  0.04389655    -0.04300
C680        C  0.27191736  0.58932568  0.03545151     0.07900
C681        C  0.27436089  0.57923907  0.04133595     0.01700
H682        H  0.26568882  0.60586641  0.04261450     0.09300
H683        H  0.27705481  0.57110224  0.03768752     0.08400
N684        N  0.26198939  0.60085705  0.08824324    -0.35400
N685        N  0.26044403  0.59292184  0.09636216    -0.27600
C686        C  0.25880958  0.59823586  0.10659388    -0.02900
C687        C  0.25950224  0.61002048  0.10485447     0.05800
C688        C  0.26153091  0.61135417  0.09313822     0.03800
H689        H  0.25757428  0.59382970  0.11475834     0.09000
H690        H  0.26265762  0.61937426  0.08848570     0.07800
N691        N  0.26290799  0.59498789  0.93658867    -0.26600
N692        N  0.26603179  0.58412767  0.93794304    -0.34500
C693        C  0.26852362  0.58217564  0.94907005     0.01700
C694        C  0.26683531  0.59223559  0.95515392     0.07800
C695        C  0.26324356  0.60026073  0.94700104    -0.05300
H696        H  0.27110230  0.57390718  0.95253559     0.08400
H697        H  0.26104564  0.60919174  0.94850634     0.09600
Cu698      Cu  0.26564608  0.57189918  0.92508965     0.44200
Cu699      Cu  0.25841589  0.60129255  0.92028265     0.42000
Cu700      Cu  0.25269937  0.57845485  0.89821710     0.43900
N701        N  0.26182707  0.55950612  0.91299628    -0.34000
N702        N  0.25659401  0.56161966  0.90311953    -0.28200
C703        C  0.25495702  0.55153636  0.89753781    -0.04300
C704        C  0.25944996  0.54276075  0.90432776     0.07900
C705        C  0.26369918  0.54816049  0.91401408     0.01700
H706        H  0.25090013  0.55068429  0.88919702     0.09300
H707        H  0.26775609  0.54411510  0.92137411     0.08400
N708        N  0.25247076  0.59616609  0.89511981    -0.35400
N709        N  0.25482677  0.60427092  0.90281265    -0.27600
C710        C  0.25492090  0.61457972  0.89741667    -0.02900
C711        C  0.25245463  0.61290205  0.88584784     0.05800
C712        C  0.25091717  0.60114466  0.88471844     0.03800
H713        H  0.25684552  0.62268358  0.90157836     0.09000
H714        H  0.24920004  0.59646805  0.87683251     0.07800
N715        N  0.25715491  0.40949664  0.93421994    -0.26600
N716        N  0.26030702  0.42029684  0.93573358    -0.34500
C717        C  0.26230316  0.42219146  0.94696185     0.01700
C718        C  0.26030304  0.41211547  0.95296515     0.07800
C719        C  0.25702251  0.40415748  0.94463661    -0.05300
H720        H  0.26483602  0.43041064  0.95052427     0.08400
H721        H  0.25470344  0.39524001  0.94603475     0.09600
Cu722      Cu  0.26101398  0.43227481  0.92268321     0.44200
Cu723      Cu  0.25334852  0.40367497  0.91757128     0.42000
Cu724      Cu  0.25120211  0.42691907  0.89431827     0.43900
N725        N  0.25930087  0.44506622  0.91055221    -0.34000
N726        N  0.25521872  0.44363819  0.90002829    -0.28200
C727        C  0.25459808  0.45411997  0.89484596    -0.04300
C728        C  0.25859067  0.46236784  0.90258427     0.07900
C729        C  0.26145708  0.45621813  0.91238422     0.01700
H730        H  0.25153010  0.45562178  0.88615754     0.09300
H731        H  0.26464059  0.45959207  0.92046214     0.08400
N732        N  0.24964965  0.40899559  0.89175420    -0.35400
N733        N  0.25064691  0.40094771  0.89988004    -0.27600
C734        C  0.24993433  0.39049161  0.89489928    -0.02900
C735        C  0.24834314  0.39191261  0.88314295     0.05800
C736        C  0.24817170  0.40375074  0.88145608     0.03800
H737        H  0.25066770  0.38240320  0.89951284     0.09000
H738        H  0.24736796  0.40824074  0.87328798     0.07800
C739        C  0.16973265  0.25015823  0.65795582     0.03800
C740        C  0.16970056  0.25826884  0.66696223    -0.12300
C741        C  0.17874338  0.25878037  0.67488342     0.01300
C742        C  0.18773712  0.25079576  0.67387074    -0.10900
C743        C  0.18789574  0.24251573  0.66502038     0.03800
C744        C  0.17891435  0.24240659  0.65695375    -0.10300
H745        H  0.16274403  0.26438620  0.66764496     0.09400
H746        H  0.19462929  0.25088023  0.68005663     0.06900
H747        H  0.17887971  0.23618769  0.65000439     0.06800
C748        C  0.25402860  0.16888577  0.66068947     0.03800
C749        C  0.24614785  0.17800472  0.66012037    -0.12300
C750        C  0.24623433  0.18690246  0.66833453     0.01300
C751        C  0.25452496  0.18665161  0.67714361    -0.10900
C752        C  0.26253530  0.17759299  0.67788108     0.03800
C753        C  0.26209935  0.16869007  0.66964971    -0.10300
H754        H  0.23977111  0.17806782  0.65336494     0.09400
H755        H  0.25463188  0.19340388  0.68352427     0.06900
H756        H  0.26818585  0.16166587  0.67008316     0.06800
C757        C  0.33708442  0.16661080  0.74371035     0.03800
C758        C  0.33743295  0.17608263  0.75126158    -0.12300
C759        C  0.32924320  0.18493466  0.75068342     0.01300
C760        C  0.32060323  0.18421164  0.74231646    -0.10900
C761        C  0.31994636  0.17478850  0.73469002     0.03800
C762        C  0.32821916  0.16595294  0.73552976    -0.10300
H763        H  0.34403102  0.17641440  0.75773488     0.09400
H764        H  0.31430036  0.19102894  0.74177791     0.06900
H765        H  0.32795646  0.15866837  0.72972162     0.06800
C766        C  0.16834344  0.33153885  0.74295731     0.03800
C767        C  0.17715830  0.33122686  0.75115903    -0.12300
C768        C  0.18571330  0.32272906  0.75071390     0.01300
C769        C  0.18544449  0.31457590  0.74171376    -0.10900
C770        C  0.17666242  0.31473645  0.73341236     0.03800
C771        C  0.16809736  0.32320976  0.73419979    -0.10300
H772        H  0.17724483  0.33750665  0.75806599     0.09400
H773        H  0.19194604  0.30796888  0.74122779     0.06900
H774        H  0.16133445  0.32356397  0.72786733     0.06800
C775        C  0.33561283  0.25457597  0.82150912     0.03800
C776        C  0.32616497  0.26208742  0.82221223    -0.12300
C777        C  0.31737490  0.26175288  0.81393122     0.01300
C778        C  0.31813904  0.25365872  0.80490127    -0.10900
C779        C  0.32747182  0.24604163  0.80401313     0.03800
C780        C  0.33624192  0.24671682  0.81228829    -0.10300
H781        H  0.32566486  0.26826408  0.82919719     0.09400
H782        H  0.31141605  0.25325233  0.79857140     0.06900
H783        H  0.34344275  0.24087517  0.81175212     0.06800
C784        C  0.24774242  0.33221516  0.82836451     0.03800
C785        C  0.25624651  0.32363937  0.82852722    -0.12300
C786        C  0.25696786  0.31531949  0.81966477     0.01300
C787        C  0.24866661  0.31542612  0.81086582    -0.10900
C788        C  0.23995284  0.32380387  0.81064679     0.03800
C789        C  0.23973375  0.33228569  0.81936147    -0.10300
H790        H  0.26245127  0.32370128  0.83542233     0.09400
H791        H  0.24904543  0.30900921  0.80408651     0.06900
H792        H  0.23331332  0.33898824  0.81926462     0.06800
N793        N  0.26241989  0.90683463  0.43608587    -0.26600
N794        N  0.26713120  0.91701055  0.43787301    -0.34500
C795        C  0.26929570  0.91826191  0.44916601     0.01700
C796        C  0.26574777  0.90846098  0.45490815     0.07800
C797        C  0.26140392  0.90131721  0.44636154    -0.05300
H798        H  0.27289443  0.92594362  0.45297858     0.08400
H799        H  0.25768798  0.89286189  0.44752408     0.09600
Cu800      Cu  0.26944770  0.92943391  0.42528936     0.44200
Cu801      Cu  0.25780341  0.90172788  0.41942371     0.75600
Cu802      Cu  0.26006679  0.92454134  0.39654139     0.43900
N803        N  0.26881057  0.94230021  0.41295523    -0.34000
N804        N  0.26493180  0.94083581  0.40234819    -0.28200
C805        C  0.26492803  0.95113966  0.39686114    -0.04300
C806        C  0.26909169  0.95937184  0.40445748     0.07900
C807        C  0.27146131  0.95342432  0.41451731     0.01700
H808        H  0.26211417  0.95252048  0.38806677     0.09300
H809        H  0.27463583  0.95698041  0.42252614     0.08400
N810        N  0.25673005  0.90710650  0.39354812    -0.35400
N811        N  0.25566311  0.89908473  0.40166988    -0.27600
C812        C  0.25387545  0.88883094  0.39655224    -0.02900
C813        C  0.25393693  0.89042425  0.38468612     0.05800
C814        C  0.25577867  0.90209051  0.38309982     0.03800
H815        H  0.25305414  0.88073795  0.40114195     0.09000
H816        H  0.25657768  0.90658958  0.37492921     0.07800
N817        N  0.26121943  0.90749325  0.55437907    -0.26600
N818        N  0.26478306  0.91815680  0.55273126    -0.34500
C819        C  0.26698976  0.91983230  0.54149496     0.01700
C820        C  0.26468401  0.90976086  0.53559833     0.07800
C821        C  0.26099441  0.90205223  0.54404045    -0.05300
H822        H  0.26983204  0.92794484  0.53788406     0.08400
H823        H  0.25838348  0.89320647  0.54277300     0.09600
Cu824      Cu  0.26582592  0.93041791  0.56551254     0.44200
Cu825      Cu  0.25728991  0.90182091  0.57107238     0.42000
Cu826      Cu  0.25899650  0.92446262  0.59464863     0.43900
N827        N  0.26485370  0.94307973  0.57791280    -0.34000
N828        N  0.26200083  0.94123038  0.58881267    -0.28200
C829        C  0.26173374  0.95146563  0.59439308    -0.04300
C830        C  0.26466076  0.96003472  0.58650915     0.07900
C831        C  0.26657485  0.95436370  0.57622068     0.01700
H832        H  0.25972349  0.95255644  0.60345907     0.09300
H833        H  0.26895050  0.95818486  0.56801539     0.08400
N834        N  0.25680300  0.90674411  0.59713465    -0.35400
N835        N  0.25586098  0.89889082  0.58886707    -0.27600
C836        C  0.25453333  0.88845675  0.59380194    -0.02900
C837        C  0.25475741  0.88975384  0.60567923     0.05800
C838        C  0.25623196  0.90142482  0.60748673     0.03800
H839        H  0.25377148  0.88047358  0.58905753     0.09000
H840        H  0.25688415  0.90574981  0.61573480     0.07800
N841        N  0.26902762  0.05839180  0.40228957    -0.26600
N842        N  0.27329313  0.05703467  0.41276769    -0.34500
C843        C  0.27571089  0.04587491  0.41455359     0.01700
C844        C  0.27278564  0.03973525  0.40477219     0.07800
C845        C  0.26854558  0.04794951  0.39712600    -0.05300
H846        H  0.27894244  0.04245003  0.42261355     0.08400
H847        H  0.26520636  0.04642253  0.38855503     0.09600
Cu848      Cu  0.27429342  0.06998099  0.42491727     0.44200
Cu849      Cu  0.26405060  0.07475754  0.39633940     0.42000
Cu850      Cu  0.26229449  0.09760959  0.41907135     0.43900
N851        N  0.27175257  0.08225052  0.43755499    -0.34000
N852        N  0.26697540  0.09241690  0.43576421    -0.28200
C853        C  0.26578831  0.09780859  0.44606702    -0.04300
C854        C  0.27004669  0.09058032  0.45464191     0.07900
C855        C  0.27373870  0.08086163  0.44887965     0.01700
H856        H  0.26192960  0.10619900  0.44724066     0.09300
H857        H  0.27728894  0.07313023  0.45269680     0.08400
N858        N  0.25998426  0.10035862  0.40129719    -0.35400
N859        N  0.26084041  0.09232849  0.39319190    -0.27600
C860        C  0.25991972  0.09742714  0.38273090    -0.02900
C861        C  0.25836350  0.10917680  0.38429405     0.05800
C862        C  0.25837791  0.11067920  0.39616324     0.03800
H863        H  0.26058616  0.09292766  0.37457190     0.09000
H864        H  0.25774620  0.11877649  0.40073871     0.07800
N865        N  0.26471464  0.09249370  0.55428074    -0.26600
N866        N  0.26993872  0.08246732  0.55313020    -0.34500
C867        C  0.27222589  0.08057486  0.54195093     0.01700
C868        C  0.26827458  0.08981977  0.53555562     0.07800
C869        C  0.26354726  0.09729160  0.54365989    -0.05300
H870        H  0.27622298  0.07281187  0.53873619     0.08400
H871        H  0.25944852  0.10547740  0.54195278     0.09600
Cu872      Cu  0.27263020  0.07077787  0.56627469     0.44200
Cu873      Cu  0.25969263  0.09829338  0.57067471     0.42000
Cu874      Cu  0.26216952  0.07569025  0.59410148     0.43900
N875        N  0.27090990  0.05769954  0.57821924    -0.34000
N876        N  0.26645989  0.05916447  0.58860185    -0.28200
C877        C  0.26519431  0.04873275  0.59368618    -0.04300
C878        C  0.26910711  0.04038696  0.58603651     0.07900
C879        C  0.27266635  0.04645001  0.57636595     0.01700
H880        H  0.26150656  0.04731961  0.60215894     0.09300
H881        H  0.27584758  0.04294786  0.56832008     0.08400
N882        N  0.25924779  0.09323251  0.59667919    -0.35400
N883        N  0.25797314  0.10117148  0.58850460    -0.27600
C884        C  0.25629347  0.11147623  0.59360903    -0.02900
C885        C  0.25667840  0.10997167  0.60548088     0.05800
C886        C  0.25857419  0.09832512  0.60709867     0.03800
H887        H  0.25523909  0.11953315  0.58900794     0.09000
H888        H  0.25948021  0.09384699  0.61525983     0.07800
N889        N  0.44252665  0.09320415  0.25386707    -0.26600
N890        N  0.44392675  0.08280594  0.25828683    -0.34500
C891        C  0.45499331  0.08102683  0.26046553     0.01700
C892        C  0.46098669  0.09079127  0.25731352     0.07800
C893        C  0.45282005  0.09839791  0.25312681    -0.05300
H894        H  0.45839768  0.07307253  0.26392104     0.08400
H895        H  0.45424872  0.10698389  0.24975890     0.09600
Cu896      Cu  0.43104273  0.07102363  0.26057135     0.44200
Cu897      Cu  0.42633826  0.09888968  0.24921722     0.42000
Cu898      Cu  0.40326361  0.07618325  0.25017631     0.43900
N899        N  0.41881500  0.05838373  0.25993282    -0.34000
N900        N  0.40854632  0.05987306  0.25551817    -0.28200
C901        C  0.40311639  0.04960559  0.25540806    -0.04300
C902        C  0.41042230  0.04140268  0.26008023     0.07900
C903        C  0.42022435  0.04730465  0.26287049     0.01700
H904        H  0.39457899  0.04823008  0.25217920     0.09300
H905        H  0.42798724  0.04374092  0.26644840     0.08400
N906        N  0.40085968  0.09373575  0.24704808    -0.35400
N907        N  0.40899555  0.10166027  0.24647651    -0.27600
C908        C  0.40415570  0.11203327  0.24471042    -0.02900
C909        C  0.39246673  0.11060387  0.24428328     0.05800
C910        C  0.39067019  0.09894314  0.24581830     0.03800
H911        H  0.40879480  0.12007873  0.24429069     0.09000
H912        H  0.38252514  0.09457103  0.24624138     0.07800
N913        N  0.59264119  0.06126449  0.25671273    -0.26600
N914        N  0.58187222  0.05967269  0.25966448    -0.34500
C915        C  0.57994490  0.04843139  0.26133813     0.01700
C916        C  0.58997726  0.04249268  0.25933864     0.07800
C917        C  0.59791596  0.05089746  0.25639114    -0.05300
H918        H  0.57169129  0.04485807  0.26352992     0.08400
H919        H  0.60676131  0.04956577  0.25403872     0.09600
Cu920      Cu  0.56987159  0.07256098  0.26035075     0.44200
Cu921      Cu  0.59854310  0.07783586  0.25308609     0.42000
Cu922      Cu  0.57556591  0.10061201  0.24979268     0.43900
N923        N  0.55740783  0.08488973  0.25863781    -0.34000
N924        N  0.55907331  0.09527708  0.25426466    -0.28200
C925        C  0.54886727  0.10070510  0.25354940    -0.04300
C926        C  0.54052839  0.09325329  0.25774086     0.07900
C927        C  0.54630417  0.08339232  0.26089048     0.01700
H928        H  0.54760786  0.10930106  0.25013516     0.09300
H929        H  0.54264597  0.07549828  0.26424474     0.08400
N930        N  0.59319464  0.10328662  0.24828088    -0.35400
N931        N  0.60121168  0.09535031  0.24985899    -0.27600
C932        C  0.61151512  0.10038641  0.24899512    -0.02900
C933        C  0.60998189  0.11195603  0.24663831     0.05800
C934        C  0.59827779  0.11350886  0.24622501     0.03800
H935        H  0.61956583  0.09591639  0.24998555     0.09000
H936        H  0.59376464  0.12152061  0.24479222     0.07800
N937        N  0.56003565  0.91027898  0.24984127    -0.26600
N938        N  0.55864461  0.92086335  0.25376781    -0.34500
C939        C  0.54753223  0.92299090  0.25546414     0.01700
C940        C  0.54141631  0.91331481  0.25249288     0.07800
C941        C  0.54960203  0.90532675  0.24893903    -0.05300
H942        H  0.54413511  0.93111028  0.25851684     0.08400
H943        H  0.54808876  0.89664500  0.24592506     0.09600
Cu944      Cu  0.57163983  0.93246283  0.25593052     0.44200
Cu945      Cu  0.57664003  0.90417597  0.24623540     0.42000
Cu946      Cu  0.59981769  0.92708041  0.24687557     0.43900
N947        N  0.58375403  0.94515763  0.25501373    -0.34000
N948        N  0.59426878  0.94364340  0.25119245    -0.28200
C949        C  0.59958575  0.95399610  0.25097907    -0.04300
C950        C  0.59189462  0.96225942  0.25491001     0.07900
C951        C  0.58202823  0.95629810  0.25736848     0.01700
H952        H  0.60827854  0.95539226  0.24815041     0.09300
H953        H  0.57402652  0.95984216  0.26042387     0.08400
N954        N  0.60240734  0.90930700  0.24516214    -0.35400
N955        N  0.59439366  0.90123393  0.24476407    -0.27600
C956        C  0.59954934  0.89083235  0.24404786    -0.02900
C957        C  0.61127948  0.89240625  0.24414991     0.05800
C958        C  0.61273399  0.90421296  0.24485305     0.03800
H959        H  0.59508310  0.88268338  0.24386429     0.09000
H960        H  0.62075116  0.90880860  0.24527342     0.07800
N961        N  0.44304603  0.91091870  0.25756739    -0.26600
N962        N  0.44434865  0.92097655  0.26271845    -0.34500
C963        C  0.45549697  0.92321265  0.26394604     0.01700
C964        C  0.46167114  0.91414624  0.25934955     0.07800
C965        C  0.45349539  0.90643863  0.25539854    -0.05300
H966        H  0.45882659  0.93109623  0.26758785     0.08400
H967        H  0.45503243  0.89836846  0.25098851     0.09600
Cu968      Cu  0.43114845  0.93208578  0.26654221     0.44200
Cu969      Cu  0.42673541  0.90477380  0.25350575     0.42000
Cu970      Cu  0.40331190  0.92670990  0.25604680     0.43900
N971        N  0.41852994  0.94444372  0.26637351    -0.34000
N972        N  0.40830799  0.94291079  0.26187379    -0.28200
C973        C  0.40281635  0.95315811  0.26164018    -0.04300
C974        C  0.41000105  0.96142427  0.26631028     0.07900
C975        C  0.41983496  0.95553784  0.26922915     0.01700
H976        H  0.39441660  0.95454389  0.25804018     0.09300
H977        H  0.42768133  0.95914960  0.27251374     0.08400
N978        N  0.40101318  0.90924797  0.25247614    -0.35400
N979        N  0.40925873  0.90146965  0.25145604    -0.27600
C980        C  0.40448145  0.89107613  0.24959186    -0.02900
C981        C  0.39272358  0.89235676  0.24952988     0.05800
C982        C  0.39085398  0.90396210  0.25139275     0.03800
H983        H  0.40922090  0.88311886  0.24872446     0.09000
H984        H  0.38267471  0.90824764  0.25211231     0.07800
C985        C  0.25649462  0.66738050  0.16180281     0.03800
C986        C  0.26459314  0.67628241  0.16111481    -0.12300
C987        C  0.26498900  0.68503020  0.16953348     0.01300
C988        C  0.25690373  0.68487451  0.17858012    -0.10900
C989        C  0.24856673  0.67614601  0.17931912     0.03800
C990        C  0.24854893  0.66738242  0.17093666    -0.10300
H991        H  0.27071238  0.67618790  0.15410226     0.09400
H992        H  0.25716169  0.69158401  0.18504127     0.06900
H993        H  0.24214770  0.66068034  0.17138114     0.06800
C994        C  0.17144758  0.66783489  0.24265117     0.03800
C995        C  0.18055769  0.66704376  0.23471412    -0.12300
C996        C  0.18878284  0.67586305  0.23388436     0.01300
C997        C  0.18783174  0.68543260  0.24126787    -0.10900
C998        C  0.17887074  0.68633124  0.24936974     0.03800
C999        C  0.17061559  0.67755633  0.24981586    -0.10300
H1000       H  0.18108228  0.65964288  0.22908832     0.09400
H1001       H  0.19419156  0.69214888  0.24069466     0.06900
H1002       H  0.16365747  0.67812656  0.25598349     0.06800
C1003       C  0.16988061  0.75221257  0.32457438     0.03800
C1004       C  0.16884940  0.74424893  0.31549411    -0.12300
C1005       C  0.17718671  0.74362329  0.30669425     0.01300
C1006       C  0.18643930  0.75136567  0.30695116    -0.10900
C1007       C  0.18751100  0.75954539  0.31585489     0.03800
C1008       C  0.17922372  0.75978702  0.32466919    -0.10300
H1009       H  0.16164164  0.73844654  0.31547386     0.09400
H1010       H  0.19276836  0.75102410  0.30013708     0.06900
H1011       H  0.17992997  0.76607034  0.33153705     0.06800
C1012       C  0.33921458  0.75057052  0.16290128     0.03800
C1013       C  0.33019507  0.74255687  0.16249047    -0.12300
C1014       C  0.32103137  0.74314460  0.17034209     0.01300
C1015       C  0.32084572  0.75210277  0.17848826    -0.10900
C1016       C  0.32978840  0.76014929  0.17919738     0.03800
C1017       C  0.33893977  0.75932553  0.17133267    -0.10300
H1018       H  0.33039132  0.73571788  0.15613431     0.09400
H1019       H  0.31362818  0.75286533  0.18423348     0.06900
H1020       H  0.34576721  0.76557463  0.17175021     0.06800
C1021       C  0.25306165  0.83366664  0.32717722     0.03800
C1022       C  0.24490621  0.82483668  0.32732516    -0.12300
C1023       C  0.24500280  0.81608882  0.31886273     0.01300
C1024       C  0.25371450  0.81616140  0.31040601    -0.10900
C1025       C  0.26209897  0.82486390  0.31025150     0.03800
C1026       C  0.26158055  0.83359884  0.31865771    -0.10300
H1027       H  0.23840677  0.82500365  0.33397019     0.09400
H1028       H  0.25394570  0.80946118  0.30390328     0.06900
H1029       H  0.26791069  0.84034226  0.31879551     0.06800
C1030       C  0.33641002  0.83521786  0.24548307     0.03800
C1031       C  0.32737978  0.83463619  0.25349454    -0.12300
C1032       C  0.31915607  0.82583757  0.25285757     0.01300
C1033       C  0.31995273  0.81774391  0.24386055    -0.10900
C1034       C  0.32889317  0.81820024  0.23572315     0.03800
C1035       C  0.33717266  0.82691245  0.23670542    -0.10300
H1036       H  0.32690545  0.84091950  0.26039234     0.09400
H1037       H  0.31363575  0.81100950  0.24315162     0.06900
H1038       H  0.34417830  0.82738029  0.23060836     0.06800
N1039       N  0.94468806  0.74996927  0.40041264    -0.26600
N1040       N  0.94640281  0.74738894  0.41138659    -0.34500
C1041       C  0.95760310  0.74671276  0.41346643     0.01700
C1042       C  0.96350265  0.74898851  0.40333829     0.07800
C1043       C  0.95500747  0.75101787  0.39514466    -0.05300
H1044       H  0.96114522  0.74491273  0.42190263     0.08400
H1045       H  0.95624195  0.75322150  0.38613251     0.09600
Cu1046     Cu  0.93364599  0.74591636  0.42354248     0.44200
Cu1047     Cu  0.92778901  0.75201414  0.39455829     0.42000
Cu1048     Cu  0.90483482  0.75376239  0.41783111     0.43900
N1049       N  0.92143056  0.74708205  0.43628837    -0.34000
N1050       N  0.91076785  0.75038092  0.43462782    -0.28200
C1051       C  0.90540858  0.75068944  0.44502277    -0.04300
C1052       C  0.91318823  0.74735527  0.45347312     0.07900
C1053       C  0.92318000  0.74515899  0.44756499     0.01700
H1054       H  0.89658204  0.75310015  0.44631720     0.09300
H1055       H  0.93125680  0.74250873  0.45122656     0.08400
N1056       N  0.90202344  0.75436773  0.39987091    -0.35400
N1057       N  0.91003746  0.75337296  0.39178169    -0.27600
C1058       C  0.90496258  0.75318991  0.38133301    -0.02900
C1059       C  0.89325997  0.75419801  0.38281344     0.05800
C1060       C  0.89173074  0.75498572  0.39467359     0.03800
H1061       H  0.90949394  0.75231428  0.37321997     0.09000
H1062       H  0.88367235  0.75561644  0.39922905     0.07800
N1063       N  0.94649216  0.74924033  0.58767766    -0.26600
N1064       N  0.94847004  0.74769039  0.57654386    -0.34500
C1065       C  0.95969190  0.74653214  0.57471260     0.01700
C1066       C  0.96526432  0.74745444  0.58514658     0.07800
C1067       C  0.95663787  0.74917194  0.59328875    -0.05300
H1068       H  0.96354881  0.74532533  0.56628683     0.08400
H1069       H  0.95765863  0.75035637  0.60250308     0.09600
Cu1070     Cu  0.93613467  0.74786365  0.56396030     0.44200
Cu1071     Cu  0.92961023  0.75133138  0.59353155     0.42000
Cu1072     Cu  0.90700497  0.75275824  0.56999260     0.43900
N1073       N  0.92403364  0.74873637  0.55117163    -0.34000
N1074       N  0.91308362  0.75071498  0.55300813    -0.28200
C1075       C  0.90763513  0.75047392  0.54269618    -0.04300
C1076       C  0.91564228  0.74811414  0.53409859     0.07900
C1077       C  0.92590166  0.74713344  0.53986307     0.01700
H1078       H  0.89854560  0.75162528  0.54157160     0.09300
H1079       H  0.93418957  0.74529803  0.53615264     0.08400
N1080       N  0.90397309  0.75305935  0.58794409    -0.35400
N1081       N  0.91184903  0.75243822  0.59615988    -0.27600
C1082       C  0.90658533  0.75234260  0.60655779    -0.02900
C1083       C  0.89490516  0.75296528  0.60488971     0.05800
C1084       C  0.89358254  0.75342841  0.59298671     0.03800
H1085       H  0.91095889  0.75176081  0.61476326     0.09000
H1086       H  0.88561862  0.75378667  0.58829085     0.07800
N1087       N  0.09588306  0.75102640  0.43433925    -0.26600
N1088       N  0.08503926  0.74848485  0.43611315    -0.34500
C1089       C  0.08305501  0.74752228  0.44748039     0.01700
C1090       C  0.09311208  0.74952801  0.45336145     0.07800
C1091       C  0.10114598  0.75172534  0.44473787    -0.05300
H1092       H  0.07478008  0.74560557  0.45114999     0.08400
H1093       H  0.11006813  0.75375308  0.44593435     0.09600
Cu1094     Cu  0.07290001  0.74697029  0.42332606     0.44200
Cu1095     Cu  0.10201380  0.75329949  0.41741332     0.42000
Cu1096     Cu  0.07914180  0.75215394  0.39415248     0.43900
N1097       N  0.06035529  0.74779465  0.41087149    -0.34000
N1098       N  0.06233238  0.75006964  0.39985993    -0.28200
C1099       C  0.05220774  0.75079420  0.39427718    -0.04300
C1100       C  0.04354427  0.74884539  0.40230126     0.07900
C1101       C  0.04909101  0.74696140  0.41265303     0.01700
H1102       H  0.05123356  0.75272981  0.38517821     0.09300
H1103       H  0.04518965  0.74537676  0.42099942     0.08400
N1104       N  0.09676774  0.75327211  0.39140991    -0.35400
N1105       N  0.10480236  0.75392109  0.39945384    -0.27600
C1106       C  0.11507703  0.75443298  0.39417257    -0.02900
C1107       C  0.11345594  0.75395562  0.38232795     0.05800
C1108       C  0.10176755  0.75322725  0.38091874     0.03800
H1109       H  0.12316402  0.75482037  0.39864821     0.09000
H1110       H  0.09718543  0.75264214  0.37283701     0.07800
N1111       N  0.06396955  0.74657206  0.58729198    -0.26600
N1112       N  0.06237989  0.74673050  0.57601105    -0.34500
C1113       C  0.05120460  0.74678013  0.57369990     0.01700
C1114       C  0.04522777  0.74665191  0.58401759     0.07800
C1115       C  0.05360941  0.74656248  0.59255014    -0.05300
H1116       H  0.04772504  0.74693906  0.56505050     0.08400
H1117       H  0.05227382  0.74637222  0.60180956     0.09600
Cu1118     Cu  0.07535711  0.74702565  0.56407727     0.44200
Cu1119     Cu  0.08077044  0.74634954  0.59356221     0.42000
Cu1120     Cu  0.10453058  0.74913975  0.57055879     0.43900
N1121       N  0.08764874  0.74820042  0.55147473    -0.34000
N1122       N  0.09869668  0.74918173  0.55339201    -0.28200
C1123       C  0.10412744  0.74982064  0.54302373    -0.04300
C1124       C  0.09592449  0.74915412  0.53433888     0.07900
C1125       C  0.08567328  0.74814316  0.54010056     0.01700
H1126       H  0.11325765  0.75056679  0.54189938     0.09300
H1127       H  0.07728891  0.74738168  0.53628592     0.08400
N1128       N  0.10667222  0.74800809  0.58860539    -0.35400
N1129       N  0.09848194  0.74679120  0.59649623    -0.27600
C1130       C  0.10332391  0.74616055  0.60704053    -0.02900
C1131       C  0.11504110  0.74709561  0.60581318     0.05800
C1132       C  0.11683725  0.74826728  0.59403690     0.03800
H1133       H  0.09860830  0.74523645  0.61504441     0.09000
H1134       H  0.12498077  0.74921383  0.58970113     0.07800
N1135       N  0.76167056  0.09511391  0.43501862    -0.26600
N1136       N  0.76525342  0.08441313  0.43638594    -0.34500
C1137       C  0.76788895  0.08255155  0.44751362     0.01700
C1138       C  0.76583501  0.09256076  0.45363656     0.07800
C1139       C  0.76184667  0.10038787  0.44544351    -0.05300
H1140       H  0.77074144  0.07435710  0.45093084     0.08400
H1141       H  0.75924354  0.10920379  0.44696253     0.09600
Cu1142     Cu  0.76521123  0.07248064  0.42330855     0.44200
Cu1143     Cu  0.75701326  0.10105141  0.41848149     0.42000
Cu1144     Cu  0.75372788  0.07855781  0.39529599     0.43900
N1145       N  0.76172237  0.06003910  0.41124975    -0.34000
N1146       N  0.75720759  0.06187983  0.40095980    -0.28200
C1147       C  0.75500655  0.05158537  0.39599771    -0.04300
C1148       C  0.75819920  0.04299176  0.40370937     0.07900
C1149       C  0.76245634  0.04870909  0.41319963     0.01700
H1150       H  0.75087917  0.05046104  0.38772350     0.09300
H1151       H  0.76544430  0.04495789  0.42120747     0.08400
N1152       N  0.75297075  0.09632527  0.39266591    -0.35400
N1153       N  0.75435767  0.10429395  0.40075026    -0.27600
C1154       C  0.75433799  0.11474955  0.39562145    -0.02900
C1155       C  0.75282570  0.11330419  0.38382373     0.05800
C1156       C  0.75193305  0.10153382  0.38229823     0.03800
H1157       H  0.75553205  0.12280387  0.40014435     0.09000
H1158       H  0.75099022  0.09703518  0.37417222     0.07800
N1159       N  0.76156063  0.09550435  0.55309999    -0.26600
N1160       N  0.76420460  0.08463545  0.55110449    -0.34500
C1161       C  0.76634936  0.08317031  0.53981948     0.01700
C1162       C  0.76491641  0.09359411  0.53426060     0.07800
C1163       C  0.76182163  0.10131012  0.54292844    -0.05300
H1164       H  0.76857188  0.07501164  0.53590086     0.08400
H1165       H  0.76001335  0.11040466  0.54193650     0.09600
Cu1166     Cu  0.76395946  0.07204806  0.56361931     0.44200
Cu1167     Cu  0.75813276  0.10070272  0.57009086     0.42000
Cu1168     Cu  0.75402988  0.07659556  0.59223847     0.43900
N1169       N  0.76129608  0.05884246  0.57516409    -0.34000
N1170       N  0.75721997  0.06005127  0.58574705    -0.28200
C1171       C  0.75617508  0.04944779  0.59056594    -0.04300
C1172       C  0.75986707  0.04132771  0.58253064     0.07900
C1173       C  0.76300744  0.04767358  0.57293018     0.01700
H1174       H  0.75311446  0.04778737  0.59924678     0.09300
H1175       H  0.76620734  0.04444605  0.56477637     0.08400
N1176       N  0.75384339  0.09436129  0.59562394    -0.35400
N1177       N  0.75565763  0.10270111  0.58794803    -0.27600
C1178       C  0.75566540  0.11289854  0.59348615    -0.02900
C1179       C  0.75363146  0.11097460  0.60510711     0.05800
C1180       C  0.75250126  0.09914334  0.60615823     0.03800
H1181       H  0.75702600  0.12114606  0.58932397     0.09000
H1182       H  0.75106084  0.09431713  0.61404548     0.07800
N1183       N  0.76097161  0.94185510  0.58527594    -0.26600
N1184       N  0.76531881  0.94370433  0.57488407    -0.34500
C1185       C  0.76671131  0.95504491  0.57321640     0.01700
C1186       C  0.76300217  0.96076081  0.58296593     0.07800
C1187       C  0.75940300  0.95214999  0.59052105    -0.05300
H1188       H  0.76984103  0.95887789  0.56527859     0.08400
H1189       H  0.75580445  0.95328071  0.59906811     0.09600
Cu1190     Cu  0.76795674  0.93108670  0.56269348     0.44200
Cu1191     Cu  0.75743497  0.92506233  0.59091373     0.42000
Cu1192     Cu  0.75997345  0.90226971  0.56788049     0.43900
N1193       N  0.76750220  0.91890979  0.54980218    -0.34000
N1194       N  0.76417939  0.90815785  0.55140507    -0.28200
C1195       C  0.76407954  0.90273764  0.54108114    -0.04300
C1196       C  0.76756520  0.91056391  0.53268807     0.07900
C1197       C  0.76964624  0.92067435  0.53855204     0.01700
H1198       H  0.76153511  0.89387706  0.53978150     0.09300
H1199       H  0.77222051  0.92885118  0.53486493     0.08400
N1200       N  0.75722413  0.89924114  0.58543707    -0.35400
N1201       N  0.75607230  0.90722280  0.59355408    -0.27600
C1202       C  0.75460497  0.90192962  0.60383953    -0.02900
C1203       C  0.75497825  0.89012184  0.60213175     0.05800
C1204       C  0.75666155  0.88874812  0.59039449     0.03800
H1205       H  0.75368236  0.90636784  0.61200650     0.09000
H1206       H  0.75751064  0.88069443  0.58577757     0.07800
N1207       N  0.75150682  0.94407442  0.40040627    -0.26600
N1208       N  0.75293907  0.94594361  0.41156343    -0.34500
C1209       C  0.75296667  0.95726344  0.41362996     0.01700
C1210       C  0.75149998  0.96298839  0.40331387     0.07800
C1211       C  0.75059475  0.95439841  0.39499449    -0.05300
H1212       H  0.75414033  0.96105391  0.42208400     0.08400
H1213       H  0.74947773  0.95555231  0.38578457     0.09600
Cu1214     Cu  0.75522045  0.93344627  0.42382464     0.44200
Cu1215     Cu  0.75128398  0.92715698  0.39411436     0.42000
Cu1216     Cu  0.75531413  0.90418417  0.41734249     0.43900
N1217       N  0.75795475  0.92118607  0.43623487    -0.34000
N1218       N  0.75779879  0.91001363  0.43419643    -0.28200
C1219       C  0.76001691  0.90437599  0.44418868    -0.04300
C1220       C  0.76180044  0.91254777  0.45275838     0.07900
C1221       C  0.76038529  0.92306549  0.44736322     0.01700
H1222       H  0.76061744  0.89511169  0.44507106     0.09300
H1223       H  0.76108129  0.93152246  0.45121141     0.08400
N1224       N  0.75363478  0.90134971  0.39958925    -0.35400
N1225       N  0.75212313  0.90928051  0.39143705    -0.27600
C1226       C  0.75144807  0.90395589  0.38110654    -0.02900
C1227       C  0.75265362  0.89220479  0.38281411     0.05800
C1228       C  0.75402875  0.89088842  0.39461001     0.03800
H1229       H  0.75026711  0.90834022  0.37292545     0.09000
H1230       H  0.75520544  0.88289441  0.39928857     0.07800
C1231       C  0.83621130  0.75325040  0.32565910     0.03800
C1232       C  0.83683888  0.74489197  0.31687256    -0.12300
C1233       C  0.82830963  0.74409998  0.30834504     0.01300
C1234       C  0.81923746  0.75210296  0.30855764    -0.10900
C1235       C  0.81854168  0.76071786  0.31710692     0.03800
C1236       C  0.82704185  0.76111356  0.32567758    -0.10300
H1237       H  0.84387295  0.73882480  0.31684057     0.09400
H1238       H  0.81273767  0.75168217  0.30200831     0.06900
H1239       H  0.82662057  0.76769106  0.33229547     0.06800
C1240       C  0.75218371  0.83511477  0.32554486     0.03800
C1241       C  0.76044933  0.82637404  0.32611855    -0.12300
C1242       C  0.76123810  0.81789431  0.31744687     0.01300
C1243       C  0.75328161  0.81810752  0.30830618    -0.10900
C1244       C  0.74475693  0.82670877  0.30767655     0.03800
C1245       C  0.74440586  0.83522166  0.31631726    -0.10300
H1246       H  0.76636510  0.82638778  0.33327361     0.09400
H1247       H  0.75381385  0.81157550  0.30168004     0.06900
H1248       H  0.73792825  0.84188008  0.31597479     0.06800
C1249       C  0.66874993  0.83568705  0.24344692     0.03800
C1250       C  0.66875515  0.82668407  0.23530131    -0.12300
C1251       C  0.67786448  0.81875668  0.23471106     0.01300
C1252       C  0.68690572  0.81981323  0.24264029    -0.10900
C1253       C  0.68703261  0.82861795  0.25101000     0.03800
C1254       C  0.67795204  0.83662572  0.25118886    -0.10300
H1255       H  0.66183075  0.82613723  0.22918102     0.09400
H1256       H  0.69388641  0.81369205  0.24232264     0.06900
H1257       H  0.67786108  0.84352675  0.25745772     0.06800
C1258       C  0.67552590  0.75202704  0.16020448     0.03800
C1259       C  0.68487888  0.74437607  0.15997710    -0.12300
C1260       C  0.69343266  0.74483691  0.16848867     0.01300
C1261       C  0.69271534  0.75342794  0.17705937    -0.10900
C1262       C  0.68351259  0.76125261  0.17743720     0.03800
C1263       C  0.67487926  0.76033985  0.16904173    -0.10300
H1264       H  0.68531058  0.73777585  0.15338757     0.09400
H1265       H  0.69923677  0.75390699  0.18359280     0.06900
H1266       H  0.66770193  0.76623019  0.16927578     0.06800
C1267       C  0.75712316  0.66790990  0.16334282     0.03800
C1268       C  0.76518560  0.66820926  0.17229269    -0.12300
C1269       C  0.76559415  0.67752283  0.18005087     0.01300
C1270       C  0.75753968  0.68650076  0.17888690    -0.10900
C1271       C  0.74930250  0.68632196  0.17002508     0.03800
C1272       C  0.74931093  0.67702736  0.16221391    -0.10300
H1273       H  0.77134115  0.66128376  0.17305698     0.09400
H1274       H  0.75760052  0.69363399  0.18488482     0.06900
H1275       H  0.74307834  0.67665999  0.15535444     0.06800
C1276       C  0.84067608  0.66703081  0.24473386     0.03800
C1277       C  0.83171815  0.66669024  0.23670181    -0.12300
C1278       C  0.82334883  0.67541126  0.23642209     0.01300
C1279       C  0.82391044  0.68436427  0.24457356    -0.10900
C1280       C  0.83265435  0.68478113  0.25288652     0.03800
C1281       C  0.84109920  0.67610942  0.25279332    -0.10300
H1282       H  0.83153376  0.65975902  0.23047559     0.09400
H1283       H  0.81744048  0.69104008  0.24447523     0.06900
H1284       H  0.84787328  0.67622980  0.25911004     0.06800
C1285       C  0.33924406  0.25116157  0.15931805     0.03800
C1286       C  0.33030225  0.25929485  0.15958459    -0.12300
C1287       C  0.32217632  0.25925380  0.16859607     0.01300
C1288       C  0.32305613  0.25077625  0.17729720    -0.10900
C1289       C  0.33180064  0.24245898  0.17709481     0.03800
C1290       C  0.33992887  0.24281893  0.16812969    -0.10300
H1291       H  0.32979204  0.26581384  0.15289269     0.09400
H1292       H  0.31690039  0.25053620  0.18426953     0.06900
H1293       H  0.34682123  0.23660822  0.16795286     0.06800
C1294       C  0.33676604  0.16831133  0.24392110     0.03800
C1295       C  0.32828212  0.16870673  0.25253796    -0.12300
C1296       C  0.32021624  0.17767319  0.25278786     0.01300
C1297       C  0.32075502  0.18629286  0.24421326    -0.10900
C1298       C  0.32922254  0.18607331  0.23553571     0.03800
C1299       C  0.33720301  0.17703953  0.23550650    -0.10300
H1300       H  0.32803124  0.16208510  0.25914780     0.09400
H1301       H  0.31454367  0.19314798  0.24425060     0.06900
H1302       H  0.34375231  0.17675066  0.22887374     0.06800
C1303       C  0.25434321  0.33228047  0.15968720     0.03800
C1304       C  0.24718907  0.33283623  0.16942526    -0.12300
C1305       C  0.24805493  0.32469827  0.17841872     0.01300
C1306       C  0.25660675  0.31614849  0.17773423    -0.10900
C1307       C  0.26410396  0.31560515  0.16818318     0.03800
C1308       C  0.26275135  0.32363716  0.15911990    -0.10300
H1309       H  0.24069992  0.33948353  0.16983488     0.09400
H1310       H  0.25755268  0.30996125  0.18467543     0.06900
H1311       H  0.26832929  0.32333056  0.15167359     0.06800
C1312       C  0.17396201  0.33618491  0.24465853     0.03800
C1313       C  0.17314312  0.32675745  0.25224653    -0.12300
C1314       C  0.18121508  0.31773527  0.25200699     0.01300
C1315       C  0.19006970  0.31818787  0.24374139    -0.10900
C1316       C  0.19101441  0.32749638  0.23592401     0.03800
C1317       C  0.18295036  0.33651602  0.23657467    -0.10300
H1318       H  0.16619771  0.32661154  0.25840884     0.09400
H1319       H  0.19625722  0.31125373  0.24339192     0.06900
H1320       H  0.18343469  0.34368207  0.23062530     0.06800
C1321       C  0.25561316  0.16855875  0.32886694     0.03800
C1322       C  0.26394744  0.16821321  0.32012279    -0.12300
C1323       C  0.26437937  0.17670987  0.31143025     0.01300
C1324       C  0.25610178  0.18548891  0.31144171    -0.10900
C1325       C  0.24753284  0.18597528  0.32001159     0.03800
C1326       C  0.24744530  0.17749470  0.32878620    -0.10300
H1327       H  0.27014374  0.16130827  0.32023172     0.09400
H1328       H  0.25630092  0.19186196  0.30461123     0.06900
H1329       H  0.24090074  0.17771491  0.33541493     0.06800
C1330       C  0.17206029  0.25116902  0.32595643     0.03800
C1331       C  0.17207525  0.25893537  0.31659004    -0.12300
C1332       C  0.18091878  0.25881703  0.30827593     0.01300
C1333       C  0.18967273  0.25052709  0.30934420    -0.10900
C1334       C  0.18966572  0.24246399  0.31846490     0.03800
C1335       C  0.18089521  0.24299179  0.32680265    -0.10300
H1336       H  0.16527074  0.26522548  0.31590591     0.09400
H1337       H  0.19649502  0.25021912  0.30303700     0.06900
H1338       H  0.18082845  0.23694501  0.33392487     0.06800
N1339       N  0.94757393  0.40467290  0.24693294    -0.26600
N1340       N  0.94932801  0.41532506  0.24332913    -0.34500
C1341       C  0.96050575  0.41743424  0.24271958     0.01700
C1342       C  0.96632081  0.40768857  0.24607764     0.07800
C1343       C  0.95787799  0.39962562  0.24869159    -0.05300
H1344       H  0.96414281  0.42565400  0.24025222     0.08400
H1345       H  0.95911833  0.39092365  0.25183183     0.09600
Cu1346     Cu  0.93686043  0.42728210  0.24042859     0.44200
Cu1347     Cu  0.93068504  0.39894952  0.24913413     0.42000
Cu1348     Cu  0.90797162  0.42245766  0.24489390     0.43900
N1349       N  0.92532938  0.44049184  0.24038092    -0.34000
N1350       N  0.91431341  0.43918404  0.24229173    -0.28200
C1351       C  0.90937197  0.44975388  0.24229542    -0.04300
C1352       C  0.91784075  0.45794965  0.24026710     0.07900
C1353       C  0.92778725  0.45166808  0.23912788     0.01700
H1354       H  0.90038343  0.45135639  0.24370760     0.09300
H1355       H  0.93631414  0.45493970  0.23770498     0.08400
N1356       N  0.90504858  0.40467800  0.24697235    -0.35400
N1357       N  0.91286460  0.39655433  0.24873665    -0.27600
C1358       C  0.90757112  0.38625098  0.24944634    -0.02900
C1359       C  0.89595420  0.38789812  0.24794739     0.05800
C1360       C  0.89469817  0.39965758  0.24641527     0.03800
H1361       H  0.91192341  0.37810779  0.25061797     0.09000
H1362       H  0.88680550  0.40424901  0.24485215     0.07800
N1363       N  0.91484604  0.55746236  0.23818621    -0.26600
N1364       N  0.92550692  0.55580631  0.23482422    -0.34500
C1365       C  0.92751037  0.54445983  0.23391617     0.01700
C1366       C  0.91767588  0.53858643  0.23684941     0.07800
C1367       C  0.90974811  0.54708991  0.23951862    -0.05300
H1368       H  0.93564089  0.54074310  0.23149585     0.08400
H1369       H  0.90103120  0.54584657  0.24234026     0.09600
Cu1370     Cu  0.93730475  0.56884737  0.23228985     0.44200
Cu1371     Cu  0.90844010  0.57405801  0.24078639     0.42000
Cu1372     Cu  0.93061621  0.59753817  0.23997247     0.43900
N1373       N  0.94932000  0.58191054  0.23204150    -0.34000
N1374       N  0.94723694  0.59257655  0.23541874    -0.28200
C1375       C  0.95713577  0.59858641  0.23514026    -0.04300
C1376       C  0.96575865  0.59126163  0.23130887     0.07900
C1377       C  0.96042252  0.58083632  0.22939743     0.01700
H1378       H  0.95799738  0.60753849  0.23758424     0.09300
H1379       H  0.96441903  0.57288367  0.22666112     0.08400
N1380       N  0.91296814  0.59996520  0.24192145    -0.35400
N1381       N  0.90511739  0.59173498  0.24185469    -0.27600
C1382       C  0.89469413  0.59665739  0.24224365    -0.02900
C1383       C  0.89602300  0.60850065  0.24266870     0.05800
C1384       C  0.90769047  0.61026740  0.24252159     0.03800
H1385       H  0.88673338  0.59194263  0.24214760     0.09000
H1386       H  0.91203767  0.61848391  0.24246620     0.07800
N1387       N  0.06469445  0.40973029  0.24386268    -0.26600
N1388       N  0.06259042  0.41988467  0.23912870    -0.34500
C1389       C  0.05130893  0.42162918  0.23872611     0.01700
C1390       C  0.04587578  0.41213427  0.24340400     0.07800
C1391       C  0.05462377  0.40467316  0.24655225    -0.05300
H1392       H  0.04739069  0.42939021  0.23539047     0.08400
H1393       H  0.05374550  0.39633912  0.25067127     0.09600
Cu1394     Cu  0.07477115  0.43173914  0.23420773     0.44200
Cu1395     Cu  0.08146886  0.40401919  0.24624759     0.42000
Cu1396     Cu  0.10372539  0.42646267  0.23989498     0.43900
N1397       N  0.08687843  0.44455849  0.23298642    -0.34000
N1398       N  0.09770377  0.44300466  0.23570501    -0.28200
C1399       C  0.10307117  0.45331901  0.23519283    -0.04300
C1400       C  0.09515436  0.46164193  0.23187689     0.07900
C1401       C  0.08503996  0.45571812  0.23053347     0.01700
H1402       H  0.11199471  0.45465953  0.23710530     0.09300
H1403       H  0.07681412  0.45933239  0.22832497     0.08400
N1404       N  0.10692082  0.40889937  0.24303203    -0.35400
N1405       N  0.09909459  0.40102598  0.24556956    -0.27600
C1406       C  0.10428755  0.39072902  0.24690695    -0.02900
C1407       C  0.11589061  0.39212628  0.24503908     0.05800
C1408       C  0.11722095  0.40372957  0.24258962     0.03800
H1409       H  0.09988461  0.38276175  0.24883732     0.09000
H1410       H  0.12513019  0.40810894  0.24056435     0.07800
N1411       N  0.09770149  0.56085692  0.23119986    -0.26600
N1412       N  0.08772078  0.55976425  0.22605951    -0.34500
C1413       C  0.08596110  0.54865371  0.22343290     0.01700
C1414       C  0.09523108  0.54226412  0.22715755     0.07800
C1415       C  0.10257751  0.55030354  0.23203848    -0.05300
H1416       H  0.07818687  0.54541870  0.21963194     0.08400
H1417       H  0.11065034  0.54855924  0.23620389     0.09600
Cu1418     Cu  0.07593986  0.57296987  0.22462062     0.44200
Cu1419     Cu  0.10306374  0.57705763  0.23702797     0.42000
Cu1420     Cu  0.08015705  0.60009396  0.23798487     0.43900
N1421       N  0.06289395  0.58476249  0.22698251    -0.34000
N1422       N  0.06403506  0.59471461  0.23237366    -0.28200
C1423       C  0.05359238  0.59961646  0.23346583    -0.04300
C1424       C  0.04557836  0.59231737  0.22849515     0.07900
C1425       C  0.05187008  0.58304786  0.22447654     0.01700
H1426       H  0.05192431  0.60772080  0.23776466     0.09300
H1427       H  0.04864676  0.57532430  0.22041893     0.08400
N1428       N  0.09762782  0.60267919  0.24092890    -0.35400
N1429       N  0.10566650  0.59462053  0.24042300    -0.27600
C1430       C  0.11592352  0.59966086  0.24180560    -0.02900
C1431       C  0.11432739  0.61137168  0.24332539     0.05800
C1432       C  0.10263053  0.61297394  0.24274954     0.03800
H1433       H  0.12400259  0.59514409  0.24146393     0.09000
H1434       H  0.09809887  0.62109079  0.24316028     0.07800
N1435       N  0.06142317  0.25772941  0.39837161    -0.26600
N1436       N  0.05983413  0.26065640  0.40927680    -0.34500
C1437       C  0.04870283  0.26229577  0.41131646     0.01700
C1438       C  0.04279378  0.26028335  0.40124622     0.07800
C1439       C  0.05110835  0.25735989  0.39311689    -0.05300
H1440       H  0.04514408  0.26458587  0.41964624     0.08400
H1441       H  0.04976902  0.25517435  0.38413585     0.09600
Cu1442     Cu  0.07259377  0.26135901  0.42132657     0.44200
Cu1443     Cu  0.07812780  0.25481364  0.39237358     0.42000
Cu1444     Cu  0.10091032  0.25293710  0.41595102     0.43900
N1445       N  0.08413815  0.25881286  0.43435850    -0.34000
N1446       N  0.09475564  0.25532682  0.43286526    -0.28200
C1447       C  0.09955694  0.25386139  0.44342668    -0.04300
C1448       C  0.09141735  0.25656091  0.45181813     0.07900
C1449       C  0.08181690  0.25965095  0.44564698     0.01700
H1450       H  0.10820019  0.25093894  0.44488929     0.09300
H1451       H  0.07357951  0.26213962  0.44904828     0.08400
N1452       N  0.10377872  0.25274657  0.39796456    -0.35400
N1453       N  0.09589319  0.25365388  0.38977531    -0.27600
C1454       C  0.10114158  0.25387620  0.37937289    -0.02900
C1455       C  0.11281349  0.25296619  0.38102196     0.05800
C1456       C  0.11414426  0.25222830  0.39288853     0.03800
H1457       H  0.09675183  0.25461561  0.37118820     0.09000
H1458       H  0.12212275  0.25157760  0.39753473     0.07800
N1459       N  0.05973241  0.25245315  0.58617186    -0.26600
N1460       N  0.05796185  0.25484741  0.57515507    -0.34500
C1461       C  0.04677666  0.25442983  0.57291588     0.01700
C1462       C  0.04101269  0.25157600  0.58295876     0.07800
C1463       C  0.04949922  0.25047655  0.59129961    -0.05300
H1464       H  0.04318495  0.25557744  0.56438741     0.08400
H1465       H  0.04837727  0.24779513  0.60019774     0.09600
Cu1466     Cu  0.07059930  0.25658353  0.56286721     0.44200
Cu1467     Cu  0.07650094  0.25083923  0.59229567     0.42000
Cu1468     Cu  0.09899212  0.24903757  0.56850749     0.43900
N1469       N  0.08263521  0.25517715  0.54992779    -0.34000
N1470       N  0.09331989  0.25205578  0.55169344    -0.28200
C1471       C  0.09871360  0.25136132  0.54135167    -0.04300
C1472       C  0.09090158  0.25418667  0.53277190     0.07900
C1473       C  0.08086343  0.25654261  0.53857167     0.01700
H1474       H  0.10754023  0.24889694  0.54017608     0.09300
H1475       H  0.07274737  0.25888011  0.53478668     0.08400
N1476       N  0.10194517  0.24821907  0.58629400    -0.35400
N1477       N  0.09420974  0.24920668  0.59465087    -0.27600
C1478       C  0.09962385  0.24910902  0.60492660    -0.02900
C1479       C  0.11122027  0.24791931  0.60296149     0.05800
C1480       C  0.11236062  0.24734683  0.59107960     0.03800
H1481       H  0.09542311  0.24993965  0.61322782     0.09000
H1482       H  0.12023196  0.24670787  0.58620599     0.07800
N1483       N  0.94477214  0.25625248  0.40119300    -0.26600
N1484       N  0.94617918  0.25829624  0.41231262    -0.34500
C1485       C  0.95719004  0.26056007  0.41440601     0.01700
C1486       C  0.96315249  0.25985858  0.40409900     0.07800
C1487       C  0.95501664  0.25706625  0.39585223    -0.05300
H1488       H  0.96062891  0.26222141  0.42290844     0.08400
H1489       H  0.95644540  0.25567418  0.38671443     0.09600
Cu1490     Cu  0.93329850  0.25671899  0.42429468     0.44200
Cu1491     Cu  0.92854519  0.25250359  0.39482260     0.42000
Cu1492     Cu  0.90533981  0.24700355  0.41684481     0.43900
N1493       N  0.92112887  0.25222356  0.43629259    -0.34000
N1494       N  0.91073693  0.24856670  0.43389846    -0.28200
C1495       C  0.90546536  0.24565594  0.44390143    -0.04300
C1496       C  0.91309002  0.24743461  0.45287198     0.07900
C1497       C  0.92286254  0.25161838  0.44769744     0.01700
H1498       H  0.89699860  0.24200533  0.44452860     0.09300
H1499       H  0.93082601  0.25377776  0.45186350     0.08400
N1500       N  0.90320467  0.24736046  0.39895782    -0.35400
N1501       N  0.91130076  0.24966320  0.39124908    -0.27600
C1502       C  0.90660466  0.24991605  0.38064372    -0.02900
C1503       C  0.89509296  0.24753501  0.38169593     0.05800
C1504       C  0.89324068  0.24591011  0.39338916     0.03800
H1505       H  0.91126641  0.25165428  0.37274360     0.09000
H1506       H  0.88517814  0.24406599  0.39758904     0.07800
N1507       N  0.90898569  0.24080502  0.55198642    -0.26600
N1508       N  0.91996340  0.23921255  0.54993029    -0.34500
C1509       C  0.92179516  0.23875122  0.53853012     0.01700
C1510       C  0.91151870  0.24008794  0.53295677     0.07800
C1511       C  0.90346730  0.24139715  0.54172311    -0.05300
H1512       H  0.93010392  0.23763678  0.53457261     0.08400
H1513       H  0.89439355  0.24275125  0.54073238     0.09600
Cu1514     Cu  0.93242400  0.23821909  0.56230634     0.44200
Cu1515     Cu  0.90306312  0.24214199  0.56903659     0.42000
Cu1516     Cu  0.92626986  0.24351679  0.59164622     0.43900
N1517       N  0.94501734  0.23920517  0.57455055    -0.34000
N1518       N  0.94309394  0.24138822  0.58558581    -0.28200
C1519       C  0.95328019  0.24217022  0.59102705    -0.04300
C1520       C  0.96189556  0.24041860  0.58289278     0.07900
C1521       C  0.95627821  0.23856863  0.57260455     0.01700
H1522       H  0.95434029  0.24419006  0.60008534     0.09300
H1523       H  0.96011116  0.23719430  0.56419193     0.08400
N1524       N  0.90857242  0.24421856  0.59487866    -0.35400
N1525       N  0.90044744  0.24333940  0.58695378    -0.27600
C1526       C  0.89019707  0.24350475  0.59228394    -0.02900
C1527       C  0.89187028  0.24467619  0.60407458     0.05800
C1528       C  0.90360612  0.24514925  0.60538308     0.03800
H1529       H  0.88209550  0.24292549  0.58785977     0.09000
H1530       H  0.90822067  0.24590298  0.61343278     0.07800
C1531       C  0.66970343  0.25392068  0.16261809     0.03800
C1532       C  0.67899263  0.26158466  0.16220609    -0.12300
C1533       C  0.68736799  0.26144639  0.17087092     0.01300
C1534       C  0.68641755  0.25338094  0.17990864    -0.10900
C1535       C  0.67737056  0.24543756  0.18033881     0.03800
C1536       C  0.66888334  0.24597270  0.17178007    -0.10300
H1537       H  0.67961453  0.26777819  0.15521013     0.09400
H1538       H  0.69267913  0.25336565  0.18670892     0.06900
H1539       H  0.66182322  0.23995181  0.17201541     0.06800
C1540       C  0.66854041  0.16648137  0.24155080     0.03800
C1541       C  0.67754733  0.16592932  0.24953732    -0.12300
C1542       C  0.68591982  0.17459433  0.24993481     0.01300
C1543       C  0.68529128  0.18375129  0.24195771    -0.10900
C1544       C  0.67630905  0.18449385  0.23392337     0.03800
C1545       C  0.66790967  0.17583771  0.23388059    -0.10300
H1546       H  0.67783907  0.15885512  0.25560199     0.09400
H1547       H  0.69172340  0.19044460  0.24212875     0.06900
H1548       H  0.66097695  0.17616893  0.22774279     0.06800
C1549       C  0.75336713  0.33569724  0.16417068     0.03800
C1550       C  0.76102977  0.33548341  0.17348683    -0.12300
C1551       C  0.76082229  0.32645433  0.18162995     0.01300
C1552       C  0.75260099  0.31767955  0.18043606    -0.10900
C1553       C  0.74474439  0.31784550  0.17124281     0.03800
C1554       C  0.74533813  0.32682418  0.16308166    -0.10300
H1555       H  0.76736124  0.34221888  0.17425136     0.09400
H1556       H  0.75218952  0.31075503  0.18669390     0.06900
H1557       H  0.73951940  0.32702327  0.15584893     0.06800
C1558       C  0.75100548  0.16900973  0.32482245     0.03800
C1559       C  0.74283446  0.16881123  0.31592533    -0.12300
C1560       C  0.74263436  0.17745366  0.30735093     0.01300
C1561       C  0.75093848  0.18622681  0.30769086    -0.10900
C1562       C  0.75927492  0.18649719  0.31642950     0.03800
C1563       C  0.75908309  0.17793311  0.32505349    -0.10300
H1564       H  0.73650911  0.16201643  0.31578940     0.09400
H1565       H  0.75093235  0.19285029  0.30115300     0.06900
H1566       H  0.76541915  0.17803554  0.33185851     0.06800
C1567       C  0.83620522  0.33392908  0.24614260     0.03800
C1568       C  0.82694257  0.33505722  0.23848646    -0.12300
C1569       C  0.81803622  0.32691148  0.23842117     0.01300
C1570       C  0.81840185  0.31770704  0.24631273    -0.10900
C1571       C  0.82753677  0.31638749  0.25407858     0.03800
C1572       C  0.83645736  0.32451879  0.25384381    -0.10300
H1573       H  0.82688589  0.34211313  0.23237943     0.09400
H1574       H  0.81145052  0.31159287  0.24638771     0.06900
H1575       H  0.84356213  0.32360370  0.25975274     0.06800
C1576       C  0.83817332  0.24623726  0.32516698     0.03800
C1577       C  0.83836865  0.25504110  0.31683423    -0.12300
C1578       C  0.82938345  0.25635028  0.30888073     0.01300
C1579       C  0.82024894  0.24847255  0.30921998    -0.10900
C1580       C  0.81993350  0.23951009  0.31744785     0.03800
C1581       C  0.82898368  0.23847938  0.32535567    -0.10300
H1582       H  0.84550789  0.26092734  0.31669791     0.09400
H1583       H  0.81329151  0.24940155  0.30314117     0.06900
H1584       H  0.82901874  0.23154076  0.33158159     0.06800
C1585       C  0.83256136  0.29654450  0.27674443     0.30400
C1586       C  0.83794515  0.29217133  0.28666266    -0.35900
C1587       C  0.83361844  0.28174715  0.29103312     0.16400
C1588       C  0.82460055  0.27601905  0.28603368     0.22200
C1589       C  0.81921182  0.28039362  0.27612216    -0.34000
C1590       C  0.82355167  0.29080651  0.27174179     0.16300
O1591       O  0.83519327  0.30616008  0.27121611    -0.26000
C1592       C  0.82775516  0.30666029  0.26252501     0.06100
C1593       C  0.82032502  0.29724557  0.26246254    -0.30900
O1594       O  0.82193827  0.26643018  0.29158397    -0.22700
C1595       C  0.82937636  0.26592567  0.30027336    -0.02700
C1596       C  0.83683426  0.27531126  0.30032624    -0.17200
H1597       H  0.84502254  0.29658715  0.29069425     0.20800
H1598       H  0.81211767  0.27598897  0.27210448     0.19200
H1599       H  0.81352753  0.29527739  0.25648043     0.19100
H1600       H  0.84359463  0.27728060  0.30634639     0.15000
C1601       C  0.78287596  0.20455649  0.32191771     0.30400
C1602       C  0.79261038  0.20829427  0.32785989    -0.35900
C1603       C  0.79856546  0.21753809  0.32285116     0.16400
C1604       C  0.79518587  0.22279454  0.31272349     0.22200
C1605       C  0.78540646  0.21908745  0.30680215    -0.34000
C1606       C  0.77946028  0.20980712  0.31179866     0.16300
O1607       O  0.77622572  0.19587067  0.32489699    -0.26000
C1608       C  0.76836606  0.19548126  0.31659667     0.06100
C1609       C  0.77000191  0.20402785  0.30820806    -0.30900
O1610       O  0.80214252  0.23117599  0.30952791    -0.22700
C1611       C  0.81014846  0.23131001  0.31770270    -0.02700
C1612       C  0.80826532  0.22297501  0.32623872    -0.17200
H1613       H  0.79542389  0.20419137  0.33577328     0.20800
H1614       H  0.78269005  0.22307823  0.29879783     0.19200
H1615       H  0.76514453  0.20571582  0.30045189     0.19100
H1616       H  0.81322576  0.22108513  0.33388013     0.15000
C1617       C  0.79422762  0.32246074  0.22031370     0.30400
C1618       C  0.78508904  0.31624208  0.21555999    -0.35900
C1619       C  0.77955933  0.32140206  0.20610290     0.16400
C1620       C  0.78278477  0.33195038  0.20167835     0.22200
C1621       C  0.79186018  0.33818709  0.20647492    -0.34000
C1622       C  0.79740663  0.33302052  0.21588893     0.16300
O1623       O  0.80086759  0.31908145  0.22887279    -0.26000
C1624       C  0.80846485  0.32756611  0.22997953     0.06100
C1625       C  0.80662721  0.33651141  0.22210683    -0.30900
O1626       O  0.77664122  0.33505692  0.19266400    -0.22700
C1627       C  0.76929948  0.32642011  0.19121248    -0.02700
C1628       C  0.77075918  0.31765449  0.19939215    -0.17200
H1629       H  0.78258679  0.30788513  0.21888324     0.20800
H1630       H  0.79453015  0.34642241  0.20298428     0.19200
H1631       H  0.81143706  0.34437129  0.22090024     0.19100
H1632       H  0.76619066  0.30960551  0.20025223     0.15000
C1633       C  0.70934878  0.17968942  0.26838780     0.30400
C1634       C  0.71882243  0.18572938  0.27262631    -0.35900
C1635       C  0.72378687  0.18132528  0.28275524     0.16400
C1636       C  0.71974626  0.17165013  0.28834616     0.22200
C1637       C  0.71027048  0.16559619  0.28409790    -0.34000
C1638       C  0.70530697  0.16999932  0.27395571     0.16300
O1639       O  0.70324938  0.18244096  0.25920454    -0.26000
C1640       C  0.69513544  0.17440645  0.25880627     0.06100
C1641       C  0.69607546  0.16640716  0.26781958    -0.30900
O1642       O  0.72573210  0.16905691  0.29766366    -0.22700
C1643       C  0.73377480  0.17717499  0.29809687    -0.02700
C1644       C  0.73289487  0.18505636  0.28897670    -0.17200
H1645       H  0.72206366  0.19337136  0.26835801     0.20800
H1646       H  0.70697218  0.15800766  0.28841669     0.19200
H1647       H  0.69067458  0.15912367  0.26983204     0.19100
H1648       H  0.73815511  0.19246102  0.28703366     0.15000
C1649       C  0.67124754  0.22229593  0.19926789     0.30400
C1650       C  0.66489345  0.21308296  0.20384958    -0.35900
C1651       C  0.67031608  0.20648711  0.21244118     0.16400
C1652       C  0.68119945  0.20880934  0.21627234     0.22200
C1653       C  0.68752309  0.21801579  0.21172414    -0.34000
C1654       C  0.68211440  0.22458726  0.20315289     0.16300
O1655       O  0.66804156  0.22938032  0.19092070    -0.26000
C1656       C  0.67697029  0.23635831  0.18945206     0.06100
C1657       C  0.68596457  0.23370281  0.19689491    -0.30900
O1658       O  0.68466477  0.20149386  0.22426581    -0.22700
C1659       C  0.67591195  0.19429994  0.22562429    -0.02700
C1660       C  0.66671925  0.19705041  0.21845406    -0.17200
H1661       H  0.65638095  0.21111591  0.20084194     0.20800
H1662       H  0.69610703  0.21986753  0.21459579     0.19200
H1663       H  0.69432557  0.23758609  0.19746719     0.19100
H1664       H  0.65853883  0.19281911  0.21772718     0.15000
C1665       C  0.70665998  0.28428225  0.16585531     0.30400
C1666       C  0.71057799  0.29459932  0.16087282    -0.35900
C1667       C  0.72082056  0.29899060  0.16533258     0.16400
C1668       C  0.72680739  0.29360475  0.17405831     0.22200
C1669       C  0.72293910  0.28325766  0.17896782    -0.34000
C1670       C  0.71269303  0.27889621  0.17454446     0.16300
O1671       O  0.69710858  0.27883570  0.16331139    -0.26000
C1672       C  0.69696903  0.26982815  0.17049529     0.06100
C1673       C  0.70655558  0.26944831  0.17763283    -0.30900
O1674       O  0.73596625  0.29940126  0.17716854    -0.22700
C1675       C  0.73593581  0.30866404  0.17033783    -0.02700
C1676       C  0.72665218  0.30881293  0.16277662    -0.17200
H1677       H  0.70587586  0.29899607  0.15412603     0.20800
H1678       H  0.72750001  0.27900336  0.18590500     0.19200
H1679       H  0.70877027  0.26323204  0.18423790     0.19100
H1680       H  0.72427632  0.31529180  0.15648817     0.15000
C1681       C  0.87133703  0.24328049  0.36385805     0.30400
C1682       C  0.86034387  0.23948310  0.36101878    -0.35900
C1683       C  0.85658649  0.24216138  0.34983054     0.16400
C1684       C  0.86312639  0.24824169  0.34198826     0.22200
C1685       C  0.87420072  0.25191164  0.34477025    -0.34000
C1686       C  0.87800315  0.24915065  0.35594558     0.16300
O1687       O  0.87642056  0.24196756  0.37393377    -0.26000
C1688       C  0.88653726  0.24694503  0.37242912     0.06100
C1689       C  0.88801551  0.25154068  0.36139497    -0.30900
O1690       O  0.85764641  0.25031829  0.33224527    -0.22700
C1691       C  0.84747823  0.24540435  0.33381248    -0.02700
C1692       C  0.84639785  0.24016177  0.34462106    -0.17200
H1693       H  0.85502806  0.23490548  0.36715926     0.20800
H1694       H  0.87941081  0.25672485  0.33872130     0.19200
H1695       H  0.89531006  0.25614608  0.35797178     0.19100
H1696       H  0.83903087  0.23592560  0.34834622     0.15000
C1697       C  0.90546458  0.24276539  0.48196047     0.30400
C1698       C  0.89852444  0.24283981  0.49195954    -0.35900
C1699       C  0.90425125  0.24141881  0.50258376     0.16400
C1700       C  0.91592132  0.23989896  0.50315731     0.22200
C1701       C  0.92276244  0.23972563  0.49327772    -0.34000
C1702       C  0.91711589  0.24127842  0.48281236     0.16300
O1703       O  0.90221921  0.24473078  0.47116420    -0.26000
C1704       C  0.91199408  0.24457104  0.46521675     0.06100
C1705       C  0.92146310  0.24240228  0.47204682    -0.30900
O1706       O  0.91969767  0.23916437  0.51377763    -0.22700
C1707       C  0.91042102  0.24022632  0.52028943    -0.02700
C1708       C  0.90046935  0.24164590  0.51383339    -0.17200
H1709       H  0.88940707  0.24425543  0.49151643     0.20800
H1710       H  0.93194242  0.23880817  0.49375714     0.19200
H1711       H  0.93035408  0.24207334  0.46950307     0.19100
H1712       H  0.89183435  0.24286423  0.51694763     0.15000
C1713       C  0.01202515  0.24611140  0.58976916     0.30400
C1714       C  0.00205413  0.24507395  0.59659511    -0.35900
C1715       C  0.99175183  0.24333118  0.59053060     0.16400
C1716       C  0.99141444  0.24250767  0.57863103     0.22200
C1717       C  0.00128157  0.24348365  0.57188631    -0.34000
C1718       C  0.01143340  0.24537643  0.57788517     0.16300
O1719       O  0.02256212  0.24822587  0.59340104    -0.26000
C1720       C  0.02865595  0.24893459  0.58363548     0.06100
C1721       C  0.02210585  0.24719974  0.57379438    -0.30900
O1722       O  0.98101662  0.24121161  0.57461403    -0.22700
C1723       C  0.97442660  0.24125619  0.58398436    -0.02700
C1724       C  0.98062244  0.24253167  0.59419724    -0.17200
H1725       H  0.00226921  0.24582522  0.60591814     0.20800
H1726       H  0.00101993  0.24306462  0.56253845     0.19200
H1727       H  0.02477777  0.24734533  0.56482869     0.19100
H1728       H  0.97739647  0.24298978  0.60296310     0.15000
C1729       C  0.01347307  0.26413286  0.40561584     0.30400
C1730       C  0.00380431  0.26680888  0.41221501    -0.35900
C1731       C  0.99327612  0.26451206  0.40706930     0.16400
C1732       C  0.99222584  0.25995932  0.39611610     0.22200
C1733       C  0.00197727  0.25738393  0.38941311    -0.34000
C1734       C  0.01260760  0.25962556  0.39462106     0.16300
O1735       O  0.02408961  0.26504693  0.40911213    -0.26000
C1736       C  0.03026011  0.26113213  0.40028844     0.06100
C1737       C  0.02358772  0.25765417  0.39095726    -0.30900
O1738       O  0.98144501  0.25795865  0.39334947    -0.22700
C1739       C  0.97561026  0.26125530  0.40270453    -0.02700
C1740       C  0.98256896  0.26544571  0.41144791    -0.17200
H1741       H  0.00445714  0.27014625  0.42092041     0.20800
H1742       H  0.00132865  0.25361166  0.38089078     0.19200
H1743       H  0.02638361  0.25391456  0.38286447     0.19100
H1744       H  0.98013664  0.26843788  0.41996304     0.15000
C1745       C  0.09780853  0.25398589  0.48163895     0.30400
C1746       C  0.10425165  0.25179371  0.49172322    -0.35900
C1747       C  0.09845653  0.25323381  0.50236173     0.16400
C1748       C  0.08716162  0.25658323  0.50290517     0.22200
C1749       C  0.08080856  0.25875710  0.49295062    -0.34000
C1750       C  0.08654450  0.25733536  0.48246107     0.16300
O1751       O  0.10127990  0.25319605  0.47071730    -0.26000
C1752       C  0.09204431  0.25611225  0.46461126     0.06100
C1753       C  0.08270004  0.25874751  0.47155229    -0.30900
O1754       O  0.08327929  0.25735376  0.51353287    -0.22700
C1755       C  0.09212312  0.25448142  0.52007901    -0.02700
C1756       C  0.10187226  0.25181905  0.51362972    -0.17200
H1757       H  0.11309925  0.24913829  0.49131263     0.20800
H1758       H  0.07194416  0.26136140  0.49336130     0.19200
H1759       H  0.07420251  0.26132567  0.46899279     0.19100
H1760       H  0.11016712  0.24917413  0.51676218     0.15000
C1761       C  0.09210655  0.49116326  0.22597318     0.30400
C1762       C  0.08633904  0.50096824  0.22196793    -0.35900
C1763       C  0.09148533  0.51158978  0.22432287     0.16400
C1764       C  0.10162469  0.51260568  0.23025119     0.22200
C1765       C  0.10749736  0.50272065  0.23417530    -0.34000
C1766       C  0.10234559  0.49200941  0.23176790     0.16300
O1767       O  0.08846752  0.48046442  0.22513400    -0.26000
C1768       C  0.09648596  0.47423101  0.23034997     0.06100
C1769       C  0.10539617  0.48094446  0.23461608    -0.30900
O1770       O  0.10454710  0.52352076  0.23190625    -0.22700
C1771       C  0.09614821  0.52951106  0.22692458    -0.02700
C1772       C  0.08785388  0.52247590  0.22204290    -0.17200
H1773       H  0.07825185  0.50036561  0.21751609     0.20800
H1774       H  0.11540003  0.50334128  0.23894720     0.19200
H1775       H  0.11278508  0.47813312  0.23945841     0.19100
H1776       H  0.08007504  0.52498936  0.21769528     0.15000
C1777       C  0.99509253  0.58924346  0.22578868     0.30400
C1778       C  0.00493732  0.58361152  0.22191542    -0.35900
C1779       C  0.01532315  0.58873755  0.22481626     0.16400
C1780       C  0.01611872  0.59876773  0.23112802     0.22200
C1781       C  0.00616359  0.60453213  0.23494729    -0.34000
C1782       C  0.99564985  0.59936517  0.23200272     0.16300
O1783       O  0.98460491  0.58544299  0.22453957    -0.26000
C1784       C  0.97816545  0.59319611  0.22992611     0.06100
C1785       C  0.98455334  0.60215741  0.23470008    -0.30900
O1786       O  0.02688670  0.60165161  0.23320470    -0.22700
C1787       C  0.03295774  0.59331589  0.22810409    -0.02700
C1788       C  0.02613578  0.58512865  0.22275096    -0.17200
H1789       H  0.00452838  0.57558619  0.21717906     0.20800
H1790       H  0.00658349  0.61232717  0.24004657     0.19200
H1791       H  0.98152880  0.60932543  0.23983979     0.19100
H1792       H  0.02872678  0.57742430  0.21818321     0.15000
C1793       C  0.87073081  0.37169577  0.24498761     0.30400
C1794       C  0.85914783  0.36983851  0.24250734    -0.35900
C1795       C  0.85511081  0.35855561  0.24414462     0.16400
C1796       C  0.86195651  0.34969286  0.24803618     0.22200
C1797       C  0.87359550  0.35151682  0.25038074    -0.34000
C1798       C  0.87765827  0.36280664  0.24868624     0.16300
O1799       O  0.87620100  0.38162257  0.24427147    -0.26000
C1800       C  0.88682234  0.37909426  0.24748765     0.06100
C1801       C  0.88823017  0.36748750  0.25029661    -0.30900
O1802       O  0.85628916  0.33991102  0.24929279    -0.22700
C1803       C  0.84566965  0.34249144  0.24604260    -0.02700
C1804       C  0.84449027  0.35400182  0.24273705    -0.17200
H1805       H  0.85363297  0.37674337  0.23959571     0.20800
H1806       H  0.87907567  0.34464142  0.25342210     0.19200
H1807       H  0.89588376  0.36316237  0.25323019     0.19100
H1808       H  0.83685882  0.35846195  0.23994930     0.15000
C1809       C  0.99547783  0.41362590  0.24581320     0.30400
C1810       C  0.00485710  0.42081185  0.24405586    -0.35900
C1811       C  0.01553719  0.41560414  0.24494515     0.16400
C1812       C  0.01705330  0.40408875  0.24748323     0.22200
C1813       C  0.00754274  0.39681764  0.24934312    -0.34000
C1814       C  0.99669797  0.40206938  0.24837413     0.16300
O1815       O  0.98479954  0.41682491  0.24488251    -0.26000
C1816       C  0.97886952  0.40728573  0.24686586     0.06100
C1817       C  0.98579265  0.39774203  0.24915666    -0.30900
O1818       O  0.02800333  0.40114120  0.24751591    -0.22700
C1819       C  0.03340095  0.41095234  0.24490154    -0.02700
C1820       C  0.02601180  0.42016725  0.24326234    -0.17200
H1821       H  0.00387574  0.42983907  0.24190162     0.20800
H1822       H  0.00851718  0.38772761  0.25119652     0.19200
H1823       H  0.98320356  0.38895185  0.25086068     0.19100
H1824       H  0.02801935  0.42898956  0.24100568     0.15000
C1825       C  0.91125299  0.48771799  0.24036858     0.30400
C1826       C  0.90476229  0.49786289  0.24192117    -0.35900
C1827       C  0.91048346  0.50835332  0.23973008     0.16400
C1828       C  0.92175709  0.50872653  0.23625487     0.22200
C1829       C  0.92817309  0.49869378  0.23472655    -0.34000
C1830       C  0.92250992  0.48833310  0.23691515     0.16300
O1831       O  0.90784473  0.47691998  0.24197767    -0.26000
C1832       C  0.91711617  0.47066817  0.23951703     0.06100
C1833       C  0.92642223  0.47738922  0.23632362    -0.30900
O1834       O  0.92554862  0.51927856  0.23476499    -0.22700
C1835       C  0.91665746  0.52592053  0.23730200    -0.02700
C1836       C  0.90698733  0.51961827  0.24045915    -0.17200
H1837       H  0.89593462  0.49760583  0.24468348     0.20800
H1838       H  0.93703309  0.49895362  0.23206148     0.19200
H1839       H  0.93493130  0.47465336  0.23391839     0.19100
H1840       H  0.89868335  0.52284915  0.24298961     0.15000
C1841       C  0.14669599  0.25408277  0.34241961     0.30400
C1842       C  0.13511792  0.25663500  0.34448491    -0.35900
C1843       C  0.13111053  0.25466018  0.35580801     0.16400
C1844       C  0.13804819  0.25058846  0.36453059     0.22200
C1845       C  0.14958014  0.24795308  0.36244202    -0.34000
C1846       C  0.15354181  0.24980172  0.35110626     0.16300
O1847       O  0.15224468  0.25525927  0.33249644    -0.26000
C1848       C  0.16278249  0.25155200  0.33480415     0.06100
C1849       C  0.16403208  0.24806007  0.34628899    -0.30900
O1850       O  0.13259703  0.24952033  0.37449987    -0.22700
C1851       C  0.12196459  0.25283999  0.37214884    -0.02700
C1852       C  0.12054336  0.25610856  0.36063012    -0.17200
H1853       H  0.12961277  0.25990334  0.33773381     0.20800
H1854       H  0.15508161  0.24465865  0.36918588     0.19200
H1855       H  0.17160364  0.24482695  0.35054032     0.19100
H1856       H  0.11287275  0.25919560  0.35644998     0.15000
C1857       C  0.21389127  0.22448473  0.31534188     0.30400
C1858       C  0.22446039  0.22097853  0.31077071    -0.35900
C1859       C  0.22891133  0.21058078  0.31510439     0.16400
C1860       C  0.22336277  0.20404479  0.32334430     0.22200
C1861       C  0.21277043  0.20753596  0.32788741    -0.34000
C1862       C  0.20834079  0.21796381  0.32359334     0.16300
O1863       O  0.20816539  0.23389403  0.31252099    -0.26000
C1864       C  0.19878915  0.23348866  0.31908484     0.06100
C1865       C  0.19849322  0.22369633  0.32614292    -0.30900
O1866       O  0.22912559  0.19465667  0.32619716    -0.22700
C1867       C  0.23853748  0.19511544  0.31968777    -0.02700
C1868       C  0.23880220  0.20491336  0.31262328    -0.17200
H1869       H  0.22892171  0.22602104  0.30429556     0.20800
H1870       H  0.20830713  0.20249399  0.33436080     0.19200
H1871       H  0.19193649  0.22099812  0.33216729     0.19100
H1872       H  0.24532820  0.20763701  0.30657804     0.15000
C1873       C  0.18489438  0.29276337  0.26938062     0.30400
C1874       C  0.19034876  0.28271060  0.27342083    -0.35900
C1875       C  0.18554589  0.27751103  0.28332376     0.16400
C1876       C  0.17602269  0.28186466  0.28881205     0.22200
C1877       C  0.17053957  0.29182571  0.28472443    -0.34000
C1878       C  0.17535534  0.29703406  0.27489269     0.16300
O1879       O  0.18813379  0.29930542  0.26056817    -0.26000
C1880       C  0.18055705  0.30792286  0.26040729     0.06100
C1881       C  0.17239155  0.30684214  0.26917361    -0.30900
O1882       O  0.17314090  0.27587458  0.29809122    -0.22700
C1883       C  0.18090533  0.26748756  0.29867959    -0.02700
C1884       C  0.18884105  0.26810654  0.28962048    -0.17200
H1885       H  0.19792017  0.27930116  0.26926817     0.20800
H1886       H  0.16313205  0.29539429  0.28904048     0.19200
H1887       H  0.16537283  0.31250459  0.27131946     0.19100
H1888       H  0.19608961  0.26258873  0.28790249     0.15000
C1889       C  0.14929341  0.35346080  0.24767425     0.30400
C1890       C  0.13777956  0.35576400  0.25025522    -0.35900
C1891       C  0.13393295  0.36699241  0.24784532     0.16400
C1892       C  0.14096114  0.37541603  0.24333570     0.22200
C1893       C  0.15247111  0.37310203  0.24073688    -0.34000
C1894       C  0.15628046  0.36183306  0.24302138     0.16300
O1895       O  0.15458905  0.34349277  0.24901104    -0.26000
C1896       C  0.16511828  0.34541216  0.24504853     0.06100
C1897       C  0.16664226  0.35673318  0.24123834    -0.30900
O1898       O  0.13559588  0.38532282  0.24178762    -0.22700
C1899       C  0.12495230  0.38322445  0.24528855    -0.02700
C1900       C  0.12342372  0.37193404  0.24912311    -0.17200
H1901       H  0.13218686  0.34922752  0.25378661     0.20800
H1902       H  0.15803474  0.37960059  0.23708339     0.19200
H1903       H  0.17425138  0.36066154  0.23767496     0.19100
H1904       H  0.11571831  0.36796320  0.25241562     0.15000
C1905       C  0.22618581  0.33108719  0.19853147     0.30400
C1906       C  0.21694348  0.33737885  0.20303878    -0.35900
C1907       C  0.21132986  0.33247903  0.21260360     0.16400
C1908       C  0.21457451  0.32211965  0.21742913     0.22200
C1909       C  0.22386538  0.31584593  0.21294834    -0.34000
C1910       C  0.22948727  0.32074576  0.20336552     0.16300
O1911       O  0.23235352  0.33387723  0.18937944    -0.26000
C1912       C  0.23979227  0.32523684  0.18825783     0.06100
C1913       C  0.23838681  0.31681828  0.19681018    -0.30900
O1914       O  0.20797553  0.31906001  0.22620277    -0.22700
C1915       C  0.20035134  0.32757526  0.22707705    -0.02700
C1916       C  0.20209716  0.33617111  0.21876338    -0.17200
H1917       H  0.21421971  0.34546090  0.19924998     0.20800
H1918       H  0.22644367  0.30765034  0.21659083     0.19200
H1919       H  0.24295865  0.30878966  0.19790381     0.19100
H1920       H  0.19729179  0.34399272  0.21728848     0.15000
C1921       C  0.28255475  0.18137246  0.28743602     0.30400
C1922       C  0.28642359  0.18692079  0.27735813    -0.35900
C1923       C  0.29638096  0.18240697  0.27232206     0.16400
C1924       C  0.30213044  0.17307198  0.27685493     0.22200
C1925       C  0.29826369  0.16752666  0.28693657    -0.34000
C1926       C  0.28831074  0.17204719  0.29198025     0.16300
O1927       O  0.27347064  0.18418170  0.29358856    -0.26000
C1928       C  0.27333441  0.17655583  0.30223984     0.06100
C1929       C  0.28243625  0.16878980  0.30162563    -0.30900
O1930       O  0.31119495  0.17024139  0.27067963    -0.22700
C1931       C  0.31132062  0.17786548  0.26202863    -0.02700
C1932       C  0.30224576  0.18566228  0.26267618    -0.17200
H1933       H  0.28198043  0.19425298  0.27369678     0.20800
H1934       H  0.30270046  0.16018872  0.29059027     0.19200
H1935       H  0.28457496  0.16178629  0.30741258     0.19100
H1936       H  0.30009164  0.19266601  0.25689376     0.15000
C1937       C  0.30299106  0.28241775  0.16397940     0.30400
C1938       C  0.29856042  0.29217213  0.15830934    -0.35900
C1939       C  0.28853993  0.29691511  0.16304572     0.16400
C1940       C  0.28325702  0.29241447  0.17271158     0.22200
C1941       C  0.28769529  0.28267337  0.17838757    -0.34000
C1942       C  0.29769795  0.27791831  0.17363807     0.16300
O1943       O  0.31220404  0.27654337  0.16098089    -0.26000
C1944       C  0.31289233  0.26810762  0.16881647     0.06100
C1945       C  0.30402189  0.26861055  0.17692277    -0.30900
O1946       O  0.27403995  0.29827283  0.17571614    -0.22700
C1947       C  0.27331542  0.30668460  0.16786223    -0.02700
C1948       C  0.28218412  0.30620726  0.15975415    -0.17200
H1949       H  0.30263089  0.29580124  0.15071623     0.20800
H1950       H  0.28362820  0.27904673  0.18598403     0.19200
H1951       H  0.30230572  0.26296274  0.18417076     0.19100
H1952       H  0.28390131  0.31191167  0.15255002     0.15000
C1953       C  0.33441596  0.20385393  0.21122065     0.30400
C1954       C  0.33921287  0.20701409  0.20049957    -0.35900
C1955       C  0.33582522  0.21778387  0.19605084     0.16400
C1956       C  0.32824767  0.22489149  0.20175651     0.22200
C1957       C  0.32351509  0.22175701  0.21245187    -0.34000
C1958       C  0.32687931  0.21103548  0.21687244     0.16300
O1959       O  0.33626580  0.19418177  0.21698130    -0.26000
C1960       C  0.32979009  0.19516782  0.22645092     0.06100
C1961       C  0.32379291  0.20555046  0.22678632    -0.30900
O1962       O  0.32599847  0.23440827  0.19595667    -0.22700
C1963       C  0.33223215  0.23352262  0.18635096    -0.02700
C1964       C  0.33855984  0.22330411  0.18597238    -0.17200
H1965       H  0.34509753  0.20144658  0.19591976     0.20800
H1966       H  0.31752564  0.22725959  0.21696942     0.19200
H1967       H  0.31804392  0.20875905  0.23336713     0.19100
H1968       H  0.34412234  0.22019681  0.17917734     0.15000
C1969       C  0.85731530  0.64177498  0.24196334     0.30400
C1970       C  0.85953038  0.63012715  0.23942435    -0.35900
C1971       C  0.87078994  0.62633536  0.24123023     0.16400
C1972       C  0.87931043  0.63356115  0.24506947     0.22200
C1973       C  0.87707668  0.64516543  0.24766882    -0.34000
C1974       C  0.86579408  0.64889821  0.24605496     0.16300
O1975       O  0.84741911  0.64715163  0.24093668    -0.26000
C1976       C  0.84953129  0.65783986  0.24457720     0.06100
C1977       C  0.86085449  0.65938550  0.24787341    -0.30900
O1978       O  0.88924893  0.62828485  0.24602110    -0.22700
C1979       C  0.88707699  0.61747740  0.24289432    -0.02700
C1980       C  0.87571331  0.61574797  0.23984067    -0.17200
H1981       H  0.85293069  0.62441305  0.23632212     0.20800
H1982       H  0.88366765  0.65087148  0.25079846     0.19200
H1983       H  0.86491762  0.66715412  0.25096098     0.19100
H1984       H  0.87170750  0.60788242  0.23691877     0.15000
C1985       C  0.78810528  0.67183301  0.19947810     0.30400
C1986       C  0.79690441  0.66525038  0.20439990    -0.35900
C1987       C  0.80288944  0.67042367  0.21349590     0.16400
C1988       C  0.80041164  0.68132058  0.21749655     0.22200
C1989       C  0.79159345  0.68792518  0.21256147    -0.34000
C1990       C  0.78558525  0.68273471  0.20344704     0.16300
O1991       O  0.78147082  0.66865086  0.19087603    -0.26000
C1992       C  0.77450634  0.67759573  0.18923327     0.06100
C1993       C  0.77672731  0.68664561  0.19686032    -0.30900
O1994       O  0.80715685  0.68445546  0.22605973    -0.22700
C1995       C  0.81410415  0.67545471  0.22758571    -0.02700
C1996       C  0.81176097  0.66645714  0.21996299    -0.17200
H1997       H  0.79895435  0.65668925  0.20133284     0.20800
H1998       H  0.78956883  0.69650138  0.21560385     0.19200
H1999       H  0.77255166  0.69493734  0.19748539     0.19100
H2000       H  0.81589860  0.65815828  0.21921539     0.15000
C2001       C  0.71270489  0.72174883  0.16371286     0.30400
C2002       C  0.71717441  0.71202160  0.15803660    -0.35900
C2003       C  0.72647460  0.70655335  0.16342536     0.16400
C2004       C  0.73106856  0.71037942  0.17367585     0.22200
C2005       C  0.72661157  0.72009913  0.17933485    -0.34000
C2006       C  0.71732919  0.72556506  0.17394963     0.16300
O2007       O  0.70388709  0.72804057  0.16037052    -0.26000
C2008       C  0.70280616  0.73606539  0.16856100     0.06100
C2009       C  0.71102722  0.73487752  0.17722299    -0.30900
O2010       O  0.73965089  0.70390896  0.17724872    -0.22700
C2011       C  0.74064056  0.69574832  0.16920343    -0.02700
C2012       C  0.73260803  0.69703449  0.16036674    -0.17200
H2013       H  0.71359577  0.70887885  0.15002232     0.20800
H2014       H  0.73009567  0.72315123  0.18742735     0.19200
H2015       H  0.71217061  0.73991045  0.18498880     0.19100
H2016       H  0.73134756  0.69178232  0.15276720     0.15000
C2017       C  0.68477195  0.79622156  0.21532701     0.30400
C2018       C  0.69185600  0.78793714  0.21011711    -0.35900
C2019       C  0.68704421  0.78161833  0.20100799     0.16400
C2020       C  0.67602083  0.78330457  0.19724629     0.22200
C2021       C  0.66891521  0.79158894  0.20248097    -0.34000
C2022       C  0.67373796  0.79792938  0.21160019     0.16300
O2023       O  0.68758829  0.80316076  0.22389109    -0.26000
C2024       C  0.67825773  0.80949968  0.22574538     0.06100
C2025       C  0.66934568  0.80654296  0.21830564    -0.30900
O2026       O  0.67332976  0.77647354  0.18852618    -0.22700
C2027       C  0.68274693  0.77025065  0.18665380    -0.02700
C2028       C  0.69155702  0.77317685  0.19421848    -0.17200
H2029       H  0.70055125  0.78654458  0.21294147     0.20800
H2030       H  0.66024638  0.79303522  0.19960552     0.19200
H2031       H  0.66084685  0.81015144  0.21781927     0.19100
H2032       H  0.70013196  0.76974975  0.19466859     0.15000
C2033       C  0.72213974  0.83258372  0.28827061     0.30400
C2034       C  0.71257534  0.83858985  0.28405424    -0.35900
C2035       C  0.70731405  0.83395358  0.27419531     0.16400
C2036       C  0.71120596  0.82411255  0.26882840     0.22200
C2037       C  0.72081911  0.81814386  0.27300590    -0.34000
C2038       C  0.72605851  0.82275882  0.28289367     0.16300
O2039       O  0.72816550  0.83524173  0.29752274    -0.26000
C2040       C  0.73612902  0.82702717  0.29816605     0.06100
C2041       C  0.73518077  0.81901393  0.28920981    -0.30900
O2042       O  0.70477617  0.82109792  0.25996538    -0.22700
C2043       C  0.69657778  0.82909602  0.25958019    -0.02700
C2044       C  0.69782127  0.83735357  0.26827265    -0.17200
H2045       H  0.70935727  0.84625536  0.28827017     0.20800
H2046       H  0.72389661  0.81034569  0.26893271     0.19200
H2047       H  0.74031306  0.81143978  0.28757286     0.19100
H2048       H  0.69245636  0.84469704  0.27019005     0.15000
C2049       C  0.83500283  0.72065667  0.28988728     0.30400
C2050       C  0.84143358  0.71126388  0.28574967    -0.35900
C2051       C  0.83694292  0.70542186  0.27613271     0.16400
C2052       C  0.82684201  0.70861759  0.27095781     0.22200
C2053       C  0.82043427  0.71798900  0.27507724    -0.34000
C2054       C  0.82491138  0.72380545  0.28467485     0.16300
O2055       O  0.83753159  0.72730395  0.29879560    -0.26000
C2056       C  0.82894841  0.73487177  0.29933775     0.06100
C2057       C  0.82084282  0.73301561  0.29069301    -0.30900
O2058       O  0.82413955  0.70192099  0.26218311    -0.22700
C2059       C  0.83259363  0.69423598  0.26163164    -0.02700
C2060       C  0.84083721  0.69605518  0.27015454    -0.17200
H2061       H  0.84935893  0.70866067  0.28977705     0.20800
H2062       H  0.81246860  0.72054138  0.27109860     0.19200
H2063       H  0.81301740  0.73765295  0.28898516     0.19100
H2064       H  0.84854906  0.69121262  0.27183281     0.15000
C2065       C  0.79939966  0.78389088  0.32192687     0.30400
C2066       C  0.79525606  0.79387683  0.32738613    -0.35900
C2067       C  0.78533591  0.79878224  0.32264129     0.16400
C2068       C  0.77985913  0.79420248  0.31318379     0.22200
C2069       C  0.78399469  0.78420976  0.30773630    -0.34000
C2070       C  0.79391322  0.77930381  0.31248044     0.16300
O2071       O  0.80861346  0.77798266  0.32482380    -0.26000
C2072       C  0.80911575  0.76943442  0.31713410     0.06100
C2073       C  0.80009478  0.76987928  0.30924834    -0.30900
O2074       O  0.77076740  0.80023180  0.31014708    -0.22700
C2075       C  0.77032301  0.80883614  0.31777112    -0.02700
C2076       C  0.77926220  0.80832002  0.32574624    -0.17200
H2077       H  0.79949994  0.79759544  0.33479065     0.20800
H2078       H  0.77979765  0.78053918  0.30027908     0.19200
H2079       H  0.79827577  0.76421424  0.30208008     0.19100
H2080       H  0.78117465  0.81410702  0.33279035     0.15000
C2081       C  0.75059681  0.87483215  0.35802853     0.30400
C2082       C  0.74844714  0.87232088  0.34636371    -0.35900
C2083       C  0.75000155  0.86079651  0.34302995     0.16400
C2084       C  0.75357555  0.85233142  0.35059886     0.22200
C2085       C  0.75562455  0.85481641  0.36229914    -0.34000
C2086       C  0.75395422  0.86632592  0.36566006     0.16300
O2087       O  0.74973915  0.88504204  0.36298511    -0.26000
C2088       C  0.75250882  0.88304931  0.37396832     0.06100
C2089       C  0.75518816  0.87154407  0.37612769    -0.30900
O2090       O  0.75479838  0.84221237  0.34552620    -0.22700
C2091       C  0.75181199  0.84417229  0.33457869    -0.02700
C2092       C  0.74872902  0.85560124  0.33256166    -0.17200
H2093       H  0.74577099  0.87890128  0.34029867     0.20800
H2094       H  0.75837286  0.84825119  0.36834656     0.19200
H2095       H  0.75775248  0.86761020  0.38420850     0.19100
H2096       H  0.74619779  0.85957225  0.32448693     0.15000
C2097       C  0.77076302  0.91415562  0.50287778     0.30400
C2098       C  0.77270869  0.92061446  0.49285397    -0.35900
C2099       C  0.76974377  0.91532185  0.48245772     0.16400
C2100       C  0.76529862  0.90433296  0.48183567     0.22200
C2101       C  0.76351520  0.89774950  0.49193317    -0.34000
C2102       C  0.76635902  0.90313538  0.50243784     0.16300
O2103       O  0.77199960  0.91792961  0.51349658    -0.26000
C2104       C  0.76837659  0.90926567  0.52006474     0.06100
C2105       C  0.76480996  0.89975731  0.51368400    -0.30900
O2106       O  0.76228675  0.90154596  0.47117377    -0.22700
C2107       C  0.76480030  0.91093958  0.46501493    -0.02700
C2108       C  0.76951862  0.91970406  0.47160698    -0.17200
H2109       H  0.77581589  0.92938825  0.49318265     0.20800
H2110       H  0.75970847  0.88926346  0.49166120     0.19200
H2111       H  0.76113070  0.89179447  0.51683902     0.19100
H2112       H  0.77196606  0.92828771  0.46889198     0.15000
C2113       C  0.75843065  0.01154969  0.58888462     0.30400
C2114       C  0.75525630  0.00136399  0.59475655    -0.35900
C2115       C  0.75891137  0.99092651  0.58970726     0.16400
C2116       C  0.76519715  0.99063066  0.57959593     0.22200
C2117       C  0.76836038  0.00071341  0.57379623    -0.34000
C2118       C  0.76474149  0.01103347  0.57881037     0.16300
O2119       O  0.75587768  0.02230258  0.59181437    -0.26000
C2120       C  0.76063185  0.02863346  0.58343395     0.06100
C2121       C  0.76624332  0.02201418  0.57517931    -0.30900
O2122       O  0.76749606  0.98009631  0.57615225    -0.22700
C2123       C  0.76270364  0.97340642  0.58413530    -0.02700
C2124       C  0.75723530  0.97964799  0.59284185    -0.17200
H2125       H  0.75023120  0.00155206  0.60262238     0.20800
H2126       H  0.77322486  0.00051836  0.56582454     0.19200
H2127       H  0.77076021  0.02484796  0.56751054     0.19100
H2128       H  0.75252173  0.97636717  0.60020634     0.15000
C2129       C  0.75073065  0.12991945  0.35839578     0.30400
C2130       C  0.74830265  0.13211227  0.34669268    -0.35900
C2131       C  0.74984435  0.14352635  0.34291234     0.16400
C2132       C  0.75371194  0.15214419  0.35009174     0.22200
C2133       C  0.75610061  0.14996341  0.36180265    -0.34000
C2134       C  0.75438242  0.13859299  0.36562907     0.16300
O2135       O  0.74974406  0.11991541  0.36378657    -0.26000
C2136       C  0.75269962  0.12221683  0.37465711     0.06100
C2137       C  0.75566206  0.13371617  0.37630098    -0.30900
O2138       O  0.75466319  0.16215779  0.34472156    -0.22700
C2139       C  0.75120278  0.16000302  0.33397077    -0.02700
C2140       C  0.74809369  0.14852394  0.33236687    -0.17200
H2141       H  0.74532394  0.12540930  0.34096075     0.20800
H2142       H  0.75901364  0.15668137  0.36754813     0.19200
H2143       H  0.75840372  0.13786254  0.38418599     0.19100
H2144       H  0.74514103  0.14442095  0.32453440     0.15000
C2145       C  0.75365222  0.01378635  0.39693815     0.30400
C2146       C  0.75214485  0.00389882  0.39003934    -0.35900
C2147       C  0.75175734  0.99329079  0.39600396     0.16400
C2148       C  0.75270469  0.99261321  0.40788475     0.22200
C2149       C  0.75415515  0.00238703  0.41470627    -0.34000
C2150       C  0.75465035  0.01284311  0.40878842     0.16300
O2151       O  0.75460017  0.02459938  0.39335294    -0.26000
C2152       C  0.75631955  0.03047743  0.40309469     0.06100
C2153       C  0.75640523  0.02356409  0.41289934    -0.30900
O2154       O  0.75252220  0.98199931  0.41175842    -0.22700
C2155       C  0.75145706  0.97561763  0.40232058    -0.02700
C2156       C  0.75089459  0.98214169  0.39218822    -0.17200
H2157       H  0.75152464  0.00441572  0.38071643     0.20800
H2158       H  0.75507455  0.00184444  0.42400570     0.19200
H2159       H  0.75761971  0.02605089  0.42182490     0.19100
H2160       H  0.75023423  0.97912277  0.38336911     0.15000
C2161       C  0.76508697  0.10009840  0.48321096     0.30400
C2162       C  0.76157940  0.10616324  0.49317422    -0.35900
C2163       C  0.76456926  0.10120092  0.50389378     0.16400
C2164       C  0.77060234  0.09100628  0.50465587     0.22200
C2165       C  0.77424606  0.08508690  0.49477393    -0.34000
C2166       C  0.77121625  0.08998430  0.48414843     0.16300
O2167       O  0.76259026  0.10264458  0.47232377    -0.26000
C2168       C  0.76717200  0.09400105  0.46628381     0.06100
C2169       C  0.77267872  0.08593944  0.47323703    -0.30900
O2170       O  0.77172077  0.08734879  0.51536406    -0.22700
C2171       C  0.76644028  0.09528972  0.52169451    -0.02700
C2172       C  0.76187128  0.10421169  0.51504446    -0.17200
H2173       H  0.75653477  0.11396127  0.49261384     0.20800
H2174       H  0.77875434  0.07695703  0.49534110     0.19200
H2175       H  0.77684575  0.07801379  0.47067361     0.19100
H2176       H  0.75679079  0.11145386  0.51793367     0.15000
C2177       C  0.09106243  0.74809944  0.50457737     0.30400
C2178       C  0.08412088  0.74693598  0.49487238    -0.35900
C2179       C  0.08952230  0.74810201  0.48417524     0.16400
C2180       C  0.10102024  0.75027825  0.48292691     0.22200
C2181       C  0.10807524  0.75141497  0.49277297    -0.34000
C2182       C  0.10260990  0.75023008  0.50363936     0.16300
O2183       O  0.08752225  0.74744652  0.51532384    -0.26000
C2184       C  0.09683458  0.74913456  0.52159502     0.06100
C2185       C  0.10657692  0.75090852  0.51481490    -0.30900
O2186       O  0.10407157  0.75112124  0.47187326    -0.22700
C2187       C  0.09432750  0.74942830  0.46612703    -0.02700
C2188       C  0.08508023  0.74752009  0.47342463    -0.17200
H2189       H  0.07505983  0.74528808  0.49562359     0.20800
H2190       H  0.11711852  0.75314512  0.49202492     0.19200
H2191       H  0.11520312  0.75256268  0.51767425     0.19100
H2192       H  0.07626228  0.74596329  0.47119138     0.15000
C2193       C  0.99474558  0.74543678  0.58083296     0.30400
C2194       C  0.00451347  0.74402158  0.57403820    -0.35900
C2195       C  0.01493287  0.74512324  0.57973423     0.16400
C2196       C  0.01585174  0.74742303  0.59138529     0.22200
C2197       C  0.00595388  0.74885406  0.59827406    -0.34000
C2198       C  0.99538314  0.74777064  0.59250907     0.16300
O2199       O  0.98422113  0.74494340  0.57702419    -0.26000
C2200       C  0.97781408  0.74696508  0.58629139     0.06100
C2201       C  0.98427302  0.74878729  0.59626268    -0.30900
O2202       O  0.02666770  0.74818138  0.59472819    -0.22700
C2203       C  0.03261045  0.74637506  0.58500704    -0.02700
C2204       C  0.02567311  0.74442755  0.57548826    -0.17200
H2205       H  0.00401507  0.74227425  0.56486115     0.20800
H2206       H  0.00645201  0.75075352  0.60741573     0.19200
H2207       H  0.98125396  0.75072886  0.60489506     0.19100
H2208       H  0.02814878  0.74275742  0.56662622     0.15000
C2209       C  0.86094173  0.75189476  0.34309447     0.30400
C2210       C  0.87248928  0.74978026  0.34563662    -0.35900
C2211       C  0.87591136  0.75189562  0.35708645     0.16400
C2212       C  0.86847005  0.75568842  0.36552788     0.22200
C2213       C  0.85693391  0.75789277  0.36295925    -0.34000
C2214       C  0.85354881  0.75592931  0.35146138     0.16300
O2215       O  0.85590185  0.75040607  0.33298396    -0.26000
C2216       C  0.84513049  0.75367786  0.33481133     0.06100
C2217       C  0.84321724  0.75722473  0.34618075    -0.30900
O2218       O  0.87348848  0.75695459  0.37569283    -0.22700
C2219       C  0.88433764  0.75404197  0.37371966    -0.02700
C2220       C  0.88630758  0.75084272  0.36227522    -0.17200
H2221       H  0.87840704  0.74670888  0.33913184     0.20800
H2222       H  0.85101129  0.76095372  0.36946346     0.19200
H2223       H  0.83530415  0.76010753  0.35006545     0.19100
H2224       H  0.89424003  0.74805719  0.35835757     0.15000
C2225       C  0.99294283  0.75074405  0.39601162     0.30400
C2226       C  0.00288800  0.75228105  0.38917792    -0.35900
C2227       C  0.01345111  0.75072183  0.39490715     0.16400
C2228       C  0.01401961  0.74787759  0.40648753     0.22200
C2229       C  0.00423204  0.74640218  0.41320827    -0.34000
C2230       C  0.99384894  0.74793754  0.40755930     0.16300
O2231       O  0.98210211  0.75159695  0.39269113    -0.26000
C2232       C  0.97615679  0.74928075  0.40233066     0.06100
C2233       C  0.98313039  0.74699209  0.41175568    -0.30900
O2234       O  0.02450646  0.74683293  0.41028240    -0.22700
C2235       C  0.03099182  0.74901178  0.40111689    -0.02700
C2236       C  0.02460973  0.75150250  0.39120909    -0.17200
H2237       H  0.00243396  0.75449629  0.38009373     0.20800
H2238       H  0.00468953  0.74417583  0.42229381     0.19200
H2239       H  0.98071745  0.74483710  0.42053399     0.19100
H2240       H  0.02771273  0.75363753  0.38264420     0.15000
C2241       C  0.90753449  0.74764298  0.50468482     0.30400
C2242       C  0.90098401  0.75021502  0.49477648    -0.35900
C2243       C  0.90616941  0.74783465  0.48400711     0.16400
C2244       C  0.91698067  0.74317268  0.48316768     0.22200
C2245       C  0.92339634  0.74046731  0.49297401    -0.34000
C2246       C  0.91829554  0.74292756  0.50361879     0.16300
O2247       O  0.90485192  0.74987324  0.51561225    -0.26000
C2248       C  0.91408482  0.74656632  0.52149956     0.06100
C2249       C  0.92262884  0.74212593  0.51442847    -0.30900
O2250       O  0.92055916  0.74225954  0.47243521    -0.22700
C2251       C  0.91198648  0.74633872  0.46614238    -0.02700
C2252       C  0.90271786  0.74990560  0.47285554    -0.17200
H2253       H  0.89262746  0.75414765  0.49540463     0.20800
H2254       H  0.93197765  0.73705564  0.49233238     0.19200
H2255       H  0.93102126  0.73906927  0.51683838     0.19100
H2256       H  0.89483206  0.75382166  0.46998199     0.15000
C2257       C  0.28109868  0.82010638  0.28686371     0.30400
C2258       C  0.28548242  0.81461514  0.27696180    -0.35900
C2259       C  0.29516535  0.81973982  0.27188749     0.16400
C2260       C  0.30016951  0.82954234  0.27626518     0.22200
C2261       C  0.29582602  0.83497927  0.28613996    -0.34000
C2262       C  0.28618188  0.82988650  0.29117622     0.16300
O2263       O  0.27204076  0.81697239  0.29295800    -0.26000
C2264       C  0.27130428  0.82487643  0.30130358     0.06100
C2265       C  0.27997934  0.83309125  0.30054717    -0.30900
O2266       O  0.30909787  0.83291530  0.27019615    -0.22700
C2267       C  0.30993123  0.82520534  0.26172707    -0.02700
C2268       C  0.30142856  0.81676905  0.26238854    -0.17200
H2269       H  0.28159680  0.80693680  0.27343262     0.20800
H2270       H  0.29967667  0.84269245  0.28963509     0.19200
H2271       H  0.28161129  0.84047827  0.30596791     0.19100
H2272       H  0.29998609  0.80946882  0.25678942     0.15000
C2273       C  0.32518734  0.79463652  0.21699293     0.30400
C2274       C  0.32005475  0.78447154  0.21311666    -0.35900
C2275       C  0.32482000  0.77954434  0.20316999     0.16400
C2276       C  0.33401044  0.78423402  0.19738702     0.22200
C2277       C  0.33918062  0.79443954  0.20129276    -0.34000
C2278       C  0.33439264  0.79939903  0.21128325     0.16300
O2279       O  0.32209675  0.80060341  0.22614753    -0.26000
C2280       C  0.32940733  0.80936989  0.22643586     0.06100
C2281       C  0.33726491  0.80905486  0.21731933    -0.30900
O2282       O  0.33701225  0.77810393  0.18824324    -0.22700
C2283       C  0.32960590  0.76937200  0.18814644    -0.02700
C2284       C  0.32186423  0.76988208  0.19733277    -0.17200
H2285       H  0.31283770  0.78066166  0.21755606     0.20800
H2286       H  0.34641492  0.79823545  0.19687118     0.19200
H2287       H  0.34411023  0.81499088  0.21534958     0.19100
H2288       H  0.31505619  0.76400792  0.19959431     0.15000
C2289       C  0.22665551  0.79247029  0.31346629     0.30400
C2290       C  0.22267038  0.78259196  0.30770548    -0.35900
C2291       C  0.21248805  0.77775590  0.31199707     0.16400
C2292       C  0.20667444  0.78232112  0.32129979     0.22200
C2293       C  0.21064632  0.79215977  0.32703622    -0.34000
C2294       C  0.22078505  0.79697912  0.32275318     0.16300
O2295       O  0.23591191  0.79848070  0.31090317    -0.26000
C2296       C  0.23600518  0.80698070  0.31867159     0.06100
C2297       C  0.22671783  0.80640210  0.32625337    -0.30900
O2298       O  0.19732754  0.77652931  0.32384649    -0.22700
C2299       C  0.19702243  0.76806998  0.31608171    -0.02700
C2300       C  0.20631678  0.76843039  0.30846854    -0.17200
H2301       H  0.22715825  0.77896487  0.30037254     0.20800
H2302       H  0.20611511  0.79583298  0.33431834     0.19200
H2303       H  0.22446936  0.81207396  0.33330366     0.19100
H2304       H  0.20831296  0.76273564  0.30135380     0.15000
C2305       C  0.14534281  0.75128707  0.34230991     0.30400
C2306       C  0.13378626  0.74943466  0.34496229    -0.35900
C2307       C  0.13048839  0.75164504  0.35643094     0.16400
C2308       C  0.13803821  0.75531059  0.36477742     0.22200
C2309       C  0.14958221  0.75727993  0.36209188    -0.34000
C2310       C  0.15285640  0.75517843  0.35058053     0.16300
O2311       O  0.15028307  0.74965538  0.33215972    -0.26000
C2312       C  0.16111330  0.75266794  0.33387511     0.06100
C2313       C  0.16317792  0.75618828  0.34520763    -0.30900
O2314       O  0.13312797  0.75659652  0.37500671    -0.22700
C2315       C  0.12225835  0.75381918  0.37314835    -0.02700
C2316       C  0.12013977  0.75070404  0.36173576    -0.17200
H2317       H  0.12778948  0.74645148  0.33854238     0.20800
H2318       H  0.15559187  0.76021740  0.36852302     0.19200
H2319       H  0.17115591  0.75891326  0.34900217     0.19100
H2320       H  0.11216296  0.74798839  0.35793061     0.15000
C2321       C  0.17259217  0.70626044  0.27157567     0.30400
C2322       C  0.16663959  0.71065522  0.28118261    -0.35900
C2323       C  0.17144813  0.72037622  0.28651082     0.16400
C2324       C  0.18139548  0.72541833  0.28262822     0.22200
C2325       C  0.18729559  0.72106999  0.27300406    -0.34000
C2326       C  0.18251130  0.71136073  0.26770493     0.16300
O2327       O  0.16990773  0.69700033  0.26555566    -0.26000
C2328       C  0.17821093  0.69611814  0.25767859     0.06100
C2329       C  0.18627124  0.70491532  0.25864839    -0.30900
O2330       O  0.18456305  0.73420455  0.28906475    -0.22700
C2331       C  0.17656538  0.73490359  0.29725646    -0.02700
C2332       C  0.16814874  0.72646383  0.29603979    -0.17200
H2333       H  0.15890704  0.70665781  0.28439744     0.20800
H2334       H  0.19518819  0.72488657  0.26996839     0.19200
H2335       H  0.19398447  0.70631372  0.25368271     0.19100
H2336       H  0.16076620  0.72483186  0.30142928     0.15000
C2337       C  0.14700837  0.65044584  0.24632412     0.30400
C2338       C  0.13541700  0.64811040  0.24845516    -0.35900
C2339       C  0.13191502  0.63665951  0.24674323     0.16400
C2340       C  0.13935585  0.62805735  0.24338844     0.22200
C2341       C  0.15094088  0.63038577  0.24131304    -0.34000
C2342       C  0.15438656  0.64186647  0.24279894     0.16300
O2343       O  0.15201691  0.66062239  0.24689125    -0.26000
C2344       C  0.16272843  0.65858567  0.24353483     0.06100
C2345       C  0.16466863  0.64702522  0.24092119    -0.30900
O2346       O  0.13422011  0.61804197  0.24197546    -0.22700
C2347       C  0.12330891  0.62023978  0.24435638    -0.02700
C2348       C  0.12137445  0.63169507  0.24738353    -0.17200
H2349       H  0.12948513  0.65481147  0.25098160     0.20800
H2350       H  0.15680120  0.62376047  0.23843661     0.19200
H2351       H  0.17250045  0.64299023  0.23802700     0.19100
H2352       H  0.11335334  0.63580036  0.24955535     0.15000
C2353       C  0.21309902  0.68034509  0.21626515     0.30400
C2354       C  0.22254495  0.68645678  0.21193618    -0.35900
C2355       C  0.22863098  0.68116204  0.20290948     0.16400
C2356       C  0.22564324  0.67058258  0.19846571     0.22200
C2357       C  0.21623856  0.66444012  0.20284403    -0.34000
C2358       C  0.21013143  0.66975004  0.21184786     0.16300
O2359       O  0.20608319  0.68379786  0.22450775    -0.26000
C2360       C  0.19844685  0.67532332  0.22545451     0.06100
C2361       C  0.20060851  0.66632873  0.21773475    -0.30900
O2362       O  0.23228917  0.66741313  0.18980211    -0.22700
C2363       C  0.23970660  0.67605252  0.18861839    -0.02700
C2364       C  0.23780143  0.68485195  0.19662721    -0.17200
H2365       H  0.22489447  0.69483028  0.21527256     0.20800
H2366       H  0.21375637  0.65616798  0.19935634     0.19200
H2367       H  0.19588822  0.65842837  0.21649361     0.19100
H2368       H  0.24226166  0.69294496  0.19757782     0.15000
C2369       C  0.28349178  0.70860031  0.17423519     0.30400
C2370       C  0.28794988  0.71804485  0.18028232    -0.35900
C2371       C  0.29728685  0.72363972  0.17512222     0.16400
C2372       C  0.30197384  0.72019513  0.16474368     0.22200
C2373       C  0.29750364  0.71073776  0.15868224    -0.34000
C2374       C  0.28813629  0.70514097  0.16384133     0.16300
O2375       O  0.27482689  0.70209975  0.17751965    -0.26000
C2376       C  0.27382472  0.69429202  0.16914067     0.06100
C2377       C  0.28194236  0.69582951  0.16038004    -0.30900
O2378       O  0.31080856  0.72658094  0.16163401    -0.22700
C2379       C  0.31180564  0.73428991  0.17011491    -0.02700
C2380       C  0.30355957  0.73279093  0.17874482    -0.17200
H2381       H  0.28440736  0.72081861  0.18847902     0.20800
H2382       H  0.30111252  0.70790077  0.15054128     0.19200
H2383       H  0.28320631  0.69087860  0.15256987     0.19100
H2384       H  0.30239976  0.73751835  0.18671305     0.15000
C2385       C  0.36812729  0.87504540  0.24939233     0.30400
C2386       C  0.35658787  0.87236709  0.25132593    -0.35900
C2387       C  0.35334808  0.86095776  0.24901763     0.16400
C2388       C  0.36089150  0.85279245  0.24489654     0.22200
C2389       C  0.37244559  0.85544804  0.24303975    -0.34000
C2390       C  0.37572450  0.86681097  0.24550911     0.16300
O2391       O  0.37303897  0.88512001  0.25115414    -0.26000
C2392       C  0.38395527  0.88329974  0.24847098     0.06100
C2393       C  0.38611811  0.87205426  0.24490907    -0.30900
O2394       O  0.35598018  0.84272495  0.24310666    -0.22700
C2395       C  0.34516147  0.84439068  0.24626855    -0.02700
C2396       C  0.34305482  0.85558865  0.25005553    -0.17200
H2397       H  0.35057200  0.87871574  0.25448865     0.20800
H2398       H  0.37847249  0.84907999  0.23994111     0.19200
H2399       H  0.39417494  0.86828662  0.24229720     0.19100
H2400       H  0.33505632  0.85929538  0.25292851     0.15000
C2401       C  0.62861838  0.86755795  0.24221867     0.30400
C2402       C  0.63131932  0.85597591  0.23981978    -0.35900
C2403       C  0.64270346  0.85262465  0.24179555     0.16400
C2404       C  0.65082806  0.86009902  0.24599161     0.22200
C2405       C  0.64815562  0.87168403  0.24829537    -0.34000
C2406       C  0.63683198  0.87506938  0.24617567     0.16300
O2407       O  0.61852560  0.87256099  0.24101388    -0.26000
C2408       C  0.62033452  0.88346597  0.24412371     0.06100
C2409       C  0.63159014  0.88549858  0.24737904    -0.30900
O2410       O  0.66091518  0.85515076  0.24727379    -0.22700
C2411       C  0.65933741  0.84434763  0.24372020    -0.02700
C2412       C  0.64812371  0.84231157  0.24021328    -0.17200
H2413       H  0.62500661  0.85001067  0.23658891     0.20800
H2414       H  0.65448493  0.87766393  0.25146615     0.19200
H2415       H  0.63534194  0.89347794  0.25033147     0.19100
H2416       H  0.64446301  0.83437860  0.23702778     0.15000
C2417       C  0.51213414  0.91780662  0.25678070     0.30400
C2418       C  0.50257619  0.92415710  0.26028007    -0.35900
C2419       C  0.49200792  0.91874420  0.25898832     0.16400
C2420       C  0.49080401  0.90781750  0.25448929     0.22200
C2421       C  0.50045031  0.90140246  0.25097543    -0.34000
C2422       C  0.51113066  0.90683284  0.25232721     0.16300
O2423       O  0.52277588  0.92132283  0.25732688    -0.26000
C2424       C  0.52883889  0.91254054  0.25321475     0.06100
C2425       C  0.52205395  0.90322906  0.24993956    -0.30900
O2426       O  0.47996828  0.90457668  0.25399929    -0.22700
C2427       C  0.47425149  0.91357032  0.25829489    -0.02700
C2428       C  0.48136103  0.92258115  0.26153390    -0.17200
H2429       H  0.50333723  0.93276260  0.26379758     0.20800
H2430       H  0.49968634  0.89280662  0.24744968     0.19200
H2431       H  0.52475658  0.89506242  0.24634948     0.19100
H2432       H  0.47904472  0.93085592  0.26515472     0.15000
C2433       C  0.63523623  0.12809961  0.24543170     0.30400
C2434       C  0.64687830  0.13023721  0.24713491    -0.35900
C2435       C  0.65069168  0.14129215  0.24415489     0.16400
C2436       C  0.64360337  0.14965925  0.23964719     0.22200
C2437       C  0.63193347  0.14750653  0.23788897    -0.34000
C2438       C  0.62806664  0.13647294  0.24104305     0.16300
O2439       O  0.62984707  0.11844011  0.24791343    -0.26000
C2440       C  0.61904539  0.12063420  0.24516731     0.06100
C2441       C  0.61741328  0.13173796  0.24086778    -0.30900
O2442       O  0.64895690  0.15951632  0.23786034    -0.22700
C2443       C  0.65959057  0.15746283  0.24139126    -0.02700
C2444       C  0.66114030  0.14621158  0.24531318    -0.17200
H2445       H  0.65252898  0.12379714  0.25076035     0.20800
H2446       H  0.62622891  0.15404591  0.23453930     0.19200
H2447       H  0.60954756  0.13571868  0.23802009     0.19100
H2448       H  0.66880024  0.14223638  0.24868583     0.15000
C2449       C  0.58786655  0.99160986  0.25992965     0.30400
C2450       C  0.58143720  0.00122314  0.26313113    -0.35900
C2451       C  0.58670086  0.01189141  0.26160339     0.16400
C2452       C  0.59759885  0.01315308  0.25723970     0.22200
C2453       C  0.60413983  0.00342389  0.25410343    -0.34000
C2454       C  0.59881286  0.99262740  0.25560240     0.16300
O2455       O  0.58428674  0.98091571  0.26028752    -0.26000
C2456       C  0.59298338  0.97482590  0.25617085     0.06100
C2457       C  0.60233520  0.98162394  0.25310687    -0.30900
O2458       O  0.60048941  0.02413466  0.25605641    -0.22700
C2459       C  0.59126990  0.02984410  0.25971895    -0.02700
C2460       C  0.58250909  0.02261226  0.26331306    -0.17200
H2461       H  0.57278746  0.00044248  0.26636188     0.20800
H2462       H  0.61264841  0.00422406  0.25051824     0.19200
H2463       H  0.61038581  0.97890089  0.24939825     0.19100
H2464       H  0.57408882  0.02488381  0.26643422     0.15000
C2465       C  0.36810434  0.12805419  0.24543067     0.30400
C2466       C  0.35683310  0.13092195  0.24835895    -0.35900
C2467       C  0.35349804  0.14227927  0.24594499     0.16400
C2468       C  0.36067696  0.15021693  0.24082548     0.22200
C2469       C  0.37198017  0.14736907  0.23794917    -0.34000
C2470       C  0.37537898  0.13605791  0.24054120     0.16300
O2471       O  0.37307451  0.11800805  0.24717544    -0.26000
C2472       C  0.38370911  0.11963226  0.24347856     0.06100
C2473       C  0.38565510  0.13070349  0.23927577    -0.30900
O2474       O  0.35575184  0.16033661  0.23934520    -0.22700
C2475       C  0.34531344  0.15891659  0.24370915    -0.02700
C2476       C  0.34344966  0.14782330  0.24793904    -0.17200
H2477       H  0.35111957  0.12477824  0.25237503     0.20800
H2478       H  0.37774936  0.15356870  0.23410610     0.19200
H2479       H  0.39349744  0.13428062  0.23585593     0.19100
H2480       H  0.33579207  0.14431049  0.25182106     0.15000
C2481       C  0.41256230  0.01221229  0.26712365     0.30400
C2482       C  0.41776902  0.00256945  0.27209483    -0.35900
C2483       C  0.41276151  0.99194762  0.26961902     0.16400
C2484       C  0.40327505  0.99077479  0.26268619     0.22200
C2485       C  0.39794685  0.00051458  0.25778033    -0.34000
C2486       C  0.40296821  0.01123853  0.26029983     0.16300
O2487       O  0.41621682  0.02286926  0.26796838    -0.26000
C2488       C  0.40885578  0.02893648  0.26171056     0.06100
C2489       C  0.40037102  0.02218598  0.25672078    -0.30900
O2490       O  0.40061133  0.97983454  0.26090920    -0.22700
C2491       C  0.40853143  0.97403518  0.26680705    -0.02700
C2492       C  0.41620847  0.98117212  0.27245455    -0.17200
H2493       H  0.42539492  0.00327766  0.27729948     0.20800
H2494       H  0.39061043  0.99976564  0.25217273     0.19200
H2495       H  0.39354423  0.02489284  0.25104437     0.19100
H2496       H  0.42361378  0.97878388  0.27748939     0.15000
C2497       C  0.49005540  0.09853857  0.25608262     0.30400
C2498       C  0.49983010  0.10493440  0.25295308    -0.35900
C2499       C  0.51043106  0.09997900  0.25591409     0.16400
C2500       C  0.51122232  0.08951614  0.26156404     0.22200
C2501       C  0.50155272  0.08324071  0.26474235    -0.34000
C2502       C  0.49108549  0.08813158  0.26177525     0.16300
O2503       O  0.47926942  0.10113176  0.25382033    -0.26000
C2504       C  0.47345991  0.09221001  0.25814640     0.06100
C2505       C  0.48042112  0.08393972  0.26320821    -0.30900
O2506       O  0.52179402  0.08611994  0.26306567    -0.22700
C2507       C  0.52803144  0.09445959  0.25837474    -0.02700
C2508       C  0.52144938  0.10339786  0.25379902    -0.17200
H2509       H  0.49922672  0.11303498  0.24833899     0.20800
H2510       H  0.50216391  0.07495272  0.26901205     0.19200
H2511       H  0.47802816  0.07584531  0.26719206     0.19100
H2512       H  0.52433084  0.11103676  0.24927175     0.15000
C2513       C  0.25805862  0.14314297  0.34552393     0.30400
C2514       C  0.26060805  0.13147094  0.34757931    -0.35900
C2515       C  0.25894380  0.12749964  0.35894995     0.16400
C2516       C  0.25521125  0.13457592  0.36775661     0.22200
C2517       C  0.25258921  0.14624484  0.36567783    -0.34000
C2518       C  0.25406374  0.15017111  0.35424846     0.16300
O2519       O  0.25907106  0.14863335  0.33555857    -0.26000
C2520       C  0.25551714  0.15931892  0.33781510     0.06100
C2521       C  0.25226759  0.16075723  0.34933869    -0.30900
O2522       O  0.25448125  0.12910919  0.37778258    -0.22700
C2523       C  0.25766307  0.11834046  0.37536097    -0.02700
C2524       C  0.26050523  0.11684769  0.36375006    -0.17200
H2525       H  0.26366393  0.12586392  0.34076844     0.20800
H2526       H  0.24957934  0.15186620  0.37249624     0.19200
H2527       H  0.24927896  0.16852525  0.35354023     0.19100
H2528       H  0.26346577  0.10909386  0.35950369     0.15000
C2529       C  0.27261408  0.08707742  0.48455595     0.30400
C2530       C  0.27526110  0.08087263  0.49455563    -0.35900
C2531       C  0.27227553  0.08605821  0.50501430     0.16400
C2532       C  0.26704799  0.09668549  0.50574989     0.22200
C2533       C  0.26442394  0.10299839  0.49563477    -0.34000
C2534       C  0.26740202  0.09774141  0.48503646     0.16300
O2535       O  0.27432808  0.08347825  0.47393517    -0.26000
C2536       C  0.27018778  0.09186698  0.46733681     0.06100
C2537       C  0.26578000  0.10105013  0.47374742    -0.30900
O2538       O  0.26487725  0.09965279  0.51662075    -0.22700
C2539       C  0.26881870  0.09075462  0.52279414    -0.02700
C2540       C  0.27348332  0.08211101  0.51595170    -0.17200
H2541       H  0.27923388  0.07245166  0.49419387     0.20800
H2542       H  0.26022600  0.11130478  0.49598953     0.19200
H2543       H  0.26173493  0.10882548  0.47057749     0.19100
H2544       H  0.27717597  0.07397550  0.51859867     0.15000
C2545       C  0.27011637  0.98945658  0.58355264     0.30400
C2546       C  0.27404308  0.99917319  0.57763162    -0.35900
C2547       C  0.27158992  0.00978290  0.58271295     0.16400
C2548       C  0.26566800  0.01091313  0.59297445     0.22200
C2549       C  0.26179158  0.00107576  0.59903337    -0.34000
C2550       C  0.26427743  0.99032605  0.59390332     0.16300
O2551       O  0.27108522  0.97879943  0.57990985    -0.26000
C2552       C  0.26590387  0.97257134  0.58800189     0.06100
C2553       C  0.26152002  0.97924517  0.59701579    -0.30900
O2554       O  0.26404886  0.02187427  0.59579438    -0.22700
C2555       C  0.26903522  0.02769476  0.58717169    -0.02700
C2556       C  0.27385926  0.02055208  0.57886958    -0.17200
H2557       H  0.27851971  0.99850869  0.56945459     0.20800
H2558       H  0.25701867  0.00175456  0.60703379     0.19200
H2559       H  0.25668548  0.97640189  0.60448455     0.19100
H2560       H  0.27826297  0.02291564  0.57097595     0.15000
C2561       C  0.25471005  0.87341565  0.35958960     0.30400
C2562       C  0.25719336  0.87081500  0.34799756    -0.35900
C2563       C  0.25492177  0.85947072  0.34450514     0.16400
C2564       C  0.25037812  0.85127290  0.35184473     0.22200
C2565       C  0.24795572  0.85385597  0.36345907    -0.34000
C2566       C  0.25035879  0.86516503  0.36699723     0.16300
O2567       O  0.25636191  0.88341366  0.36474384    -0.26000
C2568       C  0.25312419  0.88152483  0.37563249     0.06100
C2569       C  0.24932278  0.87031361  0.37753329    -0.30900
O2570       O  0.24895275  0.84120626  0.34674147    -0.22700
C2571       C  0.25275771  0.84292252  0.33600620    -0.02700
C2572       C  0.25656403  0.85416126  0.33414825    -0.17200
H2573       H  0.26076316  0.87715711  0.34214341     0.20800
H2574       H  0.24454770  0.84746434  0.36935424     0.19200
H2575       H  0.24629518  0.86650298  0.38552205     0.19100
H2576       H  0.26000077  0.85790591  0.32629710     0.15000
C2577       C  0.27509656  0.98876087  0.40714994     0.30400
C2578       C  0.27906388  0.99851086  0.41296499    -0.35900
C2579       C  0.27653234  0.00914065  0.40786221     0.16400
C2580       C  0.27053508  0.01022275  0.39767199     0.22200
C2581       C  0.26667339  0.00037547  0.39171538    -0.34000
C2582       C  0.26918601  0.98964360  0.39687862     0.16300
O2583       O  0.27595516  0.97808598  0.41088107    -0.26000
C2584       C  0.27060096  0.97189781  0.40292154     0.06100
C2585       C  0.26624189  0.97860430  0.39392266    -0.30900
O2586       O  0.26859526  0.02115336  0.39492084    -0.22700
C2587       C  0.27343003  0.02705446  0.40350613    -0.02700
C2588       C  0.27852706  0.01997038  0.41172181    -0.17200
H2589       H  0.28352110  0.99786244  0.42112545     0.20800
H2590       H  0.26177909  0.00104092  0.38381888     0.19200
H2591       H  0.26127355  0.97581477  0.38657030     0.19100
H2592       H  0.28278627  0.02240793  0.41963332     0.15000
C2593       C  0.26949901  0.91144589  0.48469058     0.30400
C2594       C  0.27277072  0.91742098  0.49459457    -0.35900
C2595       C  0.26967977  0.91243017  0.50512934     0.16400
C2596       C  0.26378397  0.90218691  0.50602667     0.22200
C2597       C  0.26055656  0.89607907  0.49600126    -0.34000
C2598       C  0.26363864  0.90114986  0.48532115     0.16300
O2599       O  0.27109567  0.91502503  0.47403698    -0.26000
C2600       C  0.26625334  0.90698374  0.46756326     0.06100
C2601       C  0.26147930  0.89804701  0.47408403    -0.30900
O2602       O  0.26137737  0.89952530  0.51693716    -0.22700
C2603       C  0.26580978  0.90825049  0.52295311    -0.02700
C2604       C  0.27109484  0.91643383  0.51599229    -0.17200
H2605       H  0.27718783  0.92559758  0.49410719     0.20800
H2606       H  0.25576349  0.88812487  0.49648116     0.19200
H2607       H  0.25681786  0.89061367  0.47102885     0.19100
H2608       H  0.27517340  0.92439723  0.51851619     0.15000
C2609       C  0.27639965  0.29262285  0.81379046     0.30400
C2610       C  0.28065829  0.28290318  0.80793726    -0.35900
C2611       C  0.29130004  0.27870506  0.81166675     0.16400
C2612       C  0.29735068  0.28370788  0.82052820     0.22200
C2613       C  0.29308654  0.29341630  0.82638407    -0.34000
C2614       C  0.28243908  0.29760229  0.82267311     0.16300
O2615       O  0.26670649  0.29805957  0.81164371    -0.26000
C2616       C  0.26643912  0.30666481  0.81928753     0.06100
C2617       C  0.27608659  0.30674627  0.82636773    -0.30900
O2618       O  0.30716142  0.27843588  0.82252264    -0.22700
C2619       C  0.30749397  0.26989253  0.81482141    -0.02700
C2620       C  0.29775151  0.26968242  0.80785863    -0.17200
H2621       H  0.27602438  0.27892042  0.80092202     0.20800
H2622       H  0.29776727  0.29745735  0.83333180     0.19200
H2623       H  0.27830376  0.31274134  0.83313988     0.19100
H2624       H  0.29560505  0.26380173  0.80095876     0.15000
C2625       C  0.22290433  0.31918406  0.78583122     0.30400
C2626       C  0.21983251  0.31421168  0.77518634    -0.35900
C2627       C  0.20964712  0.31827194  0.77018974     0.16400
C2628       C  0.20298667  0.32662284  0.77532907     0.22200
C2629       C  0.20602791  0.33154537  0.78594821    -0.34000
C2630       C  0.21618391  0.32751436  0.79091352     0.16300
O2631       O  0.23207105  0.31676479  0.79203013    -0.26000
C2632       C  0.23125625  0.32367018  0.80122448     0.06100
C2633       C  0.22145495  0.33052202  0.80092968    -0.30900
O2634       O  0.19388245  0.32922576  0.76919159    -0.22700
C2635       C  0.19459104  0.32246464  0.75991966    -0.02700
C2636       C  0.20429211  0.31543248  0.76010476    -0.17200
H2637       H  0.22502717  0.30767078  0.77107843     0.20800
H2638       H  0.20084685  0.33810919  0.79003825     0.19200
H2639       H  0.21848989  0.33678974  0.80716064     0.19100
H2640       H  0.20709711  0.30919163  0.75376904     0.15000
C2641       C  0.33332075  0.22233759  0.78577481     0.30400
C2642       C  0.33908960  0.21234694  0.78220572    -0.35900
C2643       C  0.33438121  0.20649377  0.77274985     0.16400
C2644       C  0.32468035  0.21019407  0.76714476     0.22200
C2645       C  0.31893583  0.22023387  0.77067348    -0.34000
C2646       C  0.32363708  0.22608165  0.78016213     0.16300
O2647       O  0.33602584  0.22890976  0.79465305    -0.26000
C2648       C  0.32797430  0.23703902  0.79481790     0.06100
C2649       C  0.32005693  0.23567869  0.78589638    -0.30900
O2650       O  0.32165666  0.20322809  0.75867246    -0.22700
C2651       C  0.32952606  0.19490339  0.75880953    -0.02700
C2652       C  0.33767272  0.19658128  0.76743847    -0.17200
H2653       H  0.34664529  0.20925316  0.78660503     0.20800
H2654       H  0.31124749  0.22319452  0.76642180     0.19200
H2655       H  0.31260000  0.24080885  0.78392498     0.19100
H2656       H  0.34494887  0.19130108  0.76968021     0.15000
C2657       C  0.28471392  0.17110781  0.69757426     0.30400
C2658       C  0.29351497  0.16445671  0.70247865    -0.35900
C2659       C  0.29941373  0.16948985  0.71175580     0.16400
C2660       C  0.29678743  0.18028803  0.71593305     0.22200
C2661       C  0.28796225  0.18690245  0.71107658    -0.34000
C2662       C  0.28210891  0.18189482  0.70178764     0.16300
O2663       O  0.27824261  0.16819935  0.68871336    -0.26000
C2664       C  0.27133343  0.17722971  0.68719268     0.06100
C2665       C  0.27342972  0.18602261  0.69514039    -0.30900
O2666       O  0.30351827  0.18343618  0.72448072    -0.22700
C2667       C  0.31065054  0.17457343  0.72587849    -0.02700
C2668       C  0.30842526  0.16560828  0.71815537    -0.17200
H2669       H  0.29569546  0.15600199  0.69920508     0.20800
H2670       H  0.28588469  0.19542598  0.71424404     0.19200
H2671       H  0.26932716  0.19433771  0.69592722     0.19100
H2672       H  0.31280394  0.15744970  0.71724347     0.15000
C2673       C  0.25614302  0.14333665  0.64437266     0.30400
C2674       C  0.25886854  0.13174058  0.64222771    -0.35900
C2675       C  0.25695268  0.12783563  0.63091060     0.16400
C2676       C  0.25273917  0.13486503  0.62227498     0.22200
C2677       C  0.24986059  0.14640477  0.62446653    -0.34000
C2678       C  0.25169387  0.15027931  0.63579857     0.16300
O2679       O  0.25756004  0.14889136  0.65421931    -0.26000
C2680       C  0.25384289  0.15952206  0.65197538     0.06100
C2681       C  0.25006973  0.16084531  0.64062552    -0.30900
O2682       O  0.25204156  0.12955445  0.61221694    -0.22700
C2683       C  0.25575574  0.11893825  0.61445634    -0.02700
C2684       C  0.25888066  0.11736402  0.62596399    -0.17200
H2685       H  0.26236553  0.12619754  0.64886812     0.20800
H2686       H  0.24655651  0.15200555  0.61777626     0.19200
H2687       H  0.24688492  0.16854167  0.63643113     0.19100
H2688       H  0.26231921  0.10970510  0.63002691     0.15000
C2689       C  0.21230128  0.22526588  0.66954776     0.30400
C2690       C  0.22223283  0.22170376  0.67530463    -0.35900
C2691       C  0.22736487  0.21157204  0.67120107     0.16400
C2692       C  0.22305316  0.20538206  0.66205328     0.22200
C2693       C  0.21313435  0.20897687  0.65625477    -0.34000
C2694       C  0.20798115  0.21911145  0.66037685     0.16300
O2695       O  0.20596241  0.23427554  0.67219552    -0.26000
C2696       C  0.19740253  0.23398212  0.66463250     0.06100
C2697       C  0.19827445  0.22468528  0.65702457    -0.30900
O2698       O  0.22911113  0.19604886  0.65981914    -0.22700
C2699       C  0.23745983  0.19620169  0.66764115    -0.02700
C2700       C  0.23675582  0.20574569  0.67494617    -0.17200
H2701       H  0.22563594  0.22642310  0.68257786     0.20800
H2702       H  0.20960662  0.20413615  0.64912385     0.19200
H2703       H  0.19252893  0.22216340  0.65018661     0.19100
H2704       H  0.24223285  0.20811377  0.68205749     0.15000
C2705       C  0.17291122  0.28114842  0.69468203     0.30400
C2706       C  0.16640587  0.28986362  0.69995262    -0.35900
C2707       C  0.17158953  0.29557018  0.70925434     0.16400
C2708       C  0.18240665  0.29289440  0.71308329     0.22200
C2709       C  0.18891215  0.28423614  0.70778374    -0.34000
C2710       C  0.18373233  0.27852542  0.69852090     0.16300
O2711       O  0.16974716  0.27461787  0.68593559    -0.26000
C2712       C  0.17865231  0.26767032  0.68413312     0.06100
C2713       C  0.18761518  0.26979827  0.69175256    -0.30900
O2714       O  0.18554670  0.29919925  0.72198240    -0.22700
C2715       C  0.17665409  0.30608750  0.72394249    -0.02700
C2716       C  0.16769651  0.30416824  0.71623209    -0.17200
H2717       H  0.15788461  0.29200051  0.69704995     0.20800
H2718       H  0.19740557  0.28204809  0.71073181     0.19200
H2719       H  0.19585823  0.26563830  0.69231307     0.19100
H2720       H  0.15944485  0.30833216  0.71582360     0.15000
C2721       C  0.15154483  0.24726996  0.63395778     0.30400
C2722       C  0.14867585  0.24478699  0.62245611    -0.35900
C2723       C  0.13719028  0.24640682  0.61945879     0.16400
C2724       C  0.12904121  0.25010470  0.62725731     0.22200
C2725       C  0.13193160  0.25267560  0.63874606    -0.34000
C2726       C  0.14345216  0.25117219  0.64170985     0.16300
O2727       O  0.16176999  0.24633112  0.63861539    -0.26000
C2728       C  0.16027412  0.24980594  0.64948325     0.06100
C2729       C  0.14901947  0.25293545  0.65187802    -0.30900
O2730       O  0.11880809  0.25098490  0.62257881    -0.22700
C2731       C  0.12044618  0.24789407  0.61161419    -0.02700
C2732       C  0.13172629  0.24497255  0.60918965    -0.17200
H2733       H  0.15496990  0.24183317  0.61626374     0.20800
H2734       H  0.12565202  0.25568660  0.64492467     0.19200
H2735       H  0.14541923  0.25591044  0.65996864     0.19100
H2736       H  0.13537513  0.24220910  0.60104465     0.15000
C2737       C  0.24869865  0.36620180  0.86701265     0.30400
C2738       C  0.25056303  0.35438835  0.86507051    -0.35900
C2739       C  0.24887685  0.35050023  0.85370355     0.16400
C2740       C  0.24539273  0.35769714  0.84488117     0.22200
C2741       C  0.24357385  0.36953304  0.84681248    -0.34000
C2742       C  0.24543213  0.37346008  0.85815036     0.16300
O2743       O  0.25001206  0.37168117  0.87691939    -0.26000
C2744       C  0.24764923  0.38263720  0.87439673     0.06100
C2745       C  0.24475471  0.38425397  0.86282195    -0.30900
O2746       O  0.24436567  0.35223540  0.83491720    -0.22700
C2747       C  0.24739018  0.34140404  0.83731699    -0.02700
C2748       C  0.25028175  0.33984781  0.84890493    -0.17200
H2749       H  0.25329029  0.34865142  0.87192211     0.20800
H2750       H  0.24102055  0.37530499  0.83991973     0.19200
H2751       H  0.24252226  0.39221367  0.85848110     0.19100
H2752       H  0.25299599  0.33200361  0.85317532     0.15000
C2753       C  0.26347090  0.51299779  0.90592653     0.30400
C2754       C  0.26713648  0.50286708  0.91127494    -0.35900
C2755       C  0.26375367  0.49260690  0.90605129     0.16400
C2756       C  0.25723378  0.49217166  0.89615436     0.22200
C2757       C  0.25363039  0.50243292  0.89066053    -0.34000
C2758       C  0.25699374  0.51283146  0.89597600     0.16300
O2759       O  0.26522529  0.52344173  0.90985939    -0.26000
C2760       C  0.25986207  0.53023166  0.90239356     0.06100
C2761       C  0.25459461  0.52414676  0.89348344    -0.30900
O2762       O  0.25465357  0.48142519  0.89322402    -0.22700
C2763       C  0.25961511  0.47503849  0.90142831    -0.02700
C2764       C  0.26540215  0.48161592  0.90953700    -0.17200
H2765       H  0.27204171  0.50297854  0.91919202     0.20800
H2766       H  0.24834936  0.50232324  0.88299960     0.19200
H2767       H  0.24948439  0.52752174  0.88646591     0.19100
H2768       H  0.26996730  0.47876302  0.91714417     0.15000
C2769       C  0.25536712  0.62760861  0.12925859     0.30400
C2770       C  0.25193120  0.63038027  0.14057695    -0.35900
C2771       C  0.25408111  0.64173788  0.14416126     0.16400
C2772       C  0.25934820  0.64976827  0.13714571     0.22200
C2773       C  0.26266553  0.64703986  0.12580165    -0.34000
C2774       C  0.26041742  0.63573666  0.12218179     0.16300
O2775       O  0.25437344  0.61747298  0.12416991    -0.26000
C2776       C  0.25873522  0.61918429  0.11365220     0.06100
C2777       C  0.26259187  0.63039925  0.11193478    -0.30900
O2778       O  0.26085184  0.65975341  0.14235838    -0.22700
C2779       C  0.25639010  0.65819824  0.15285900    -0.02700
C2780       C  0.25202091  0.64711580  0.15443482    -0.17200
H2781       H  0.24793088  0.62410830  0.14621430     0.20800
H2782       H  0.26677980  0.65327550  0.12021095     0.19200
H2783       H  0.26659394  0.63403564  0.10431271     0.19100
H2784       H  0.24815627  0.64343486  0.16210689     0.15000
C2785       C  0.27313166  0.58838323  0.98438943     0.30400
C2786       C  0.27698393  0.58207096  0.99390972    -0.35900
C2787       C  0.27503791  0.58702161  0.00472423     0.16400
C2788       C  0.26970520  0.59752563  0.00618997     0.22200
C2789       C  0.26598174  0.60399023  0.99656555    -0.34000
C2790       C  0.26789380  0.59897259  0.98563736     0.16300
O2791       O  0.27351684  0.58490333  0.97360653    -0.26000
C2792       C  0.26854875  0.59334499  0.96770469     0.06100
C2793       C  0.26488665  0.60240921  0.97470724    -0.30900
O2794       O  0.26811810  0.60003031  0.01724829    -0.22700
C2795       C  0.27249176  0.59096308  0.02281303    -0.02700
C2796       C  0.27697167  0.58268947  0.01541914    -0.17200
H2797       H  0.28089499  0.57366968  0.99296234     0.20800
H2798       H  0.26159373  0.61214436  0.99754208     0.19200
H2799       H  0.26034978  0.61013970  0.97217744     0.19100
H2800       H  0.28073495  0.57444195  0.01757073     0.15000
C2801       C  0.24945445  0.35650493  0.14188085     0.30400
C2802       C  0.24666105  0.36802633  0.13941412    -0.35900
C2803       C  0.24823352  0.37159293  0.12790687     0.16400
C2804       C  0.25211078  0.36428414  0.11935118     0.22200
C2805       C  0.25486140  0.35274488  0.12181301    -0.34000
C2806       C  0.25347677  0.34923404  0.13336886     0.16300
O2807       O  0.24907672  0.35150279  0.15214328    -0.26000
C2808       C  0.25304142  0.34089917  0.15025378     0.06100
C2809       C  0.25588137  0.33901674  0.13868718    -0.30900
O2810       O  0.25336162  0.36955705  0.10928777    -0.22700
C2811       C  0.25033256  0.38041311  0.11143964    -0.02700
C2812       C  0.24703648  0.38216200  0.12288118    -0.17200
H2813       H  0.24374504  0.37388682  0.14607030     0.20800
H2814       H  0.25815137  0.34699075  0.11524024     0.19200
H2815       H  0.25925744  0.33127017  0.13475476     0.19100
H2816       H  0.24441329  0.39012110  0.12696866     0.15000
C2817       C  0.26492993  0.41583811  0.98256505     0.30400
C2818       C  0.26815408  0.42208002  0.99234388    -0.35900
C2819       C  0.26630668  0.41667513  0.00299152     0.16400
C2820       C  0.26159421  0.40583846  0.00406871     0.22200
C2821       C  0.25840788  0.39950436  0.99419276    -0.34000
C2822       C  0.26027994  0.40494612  0.98343379     0.16300
O2823       O  0.26561943  0.41953341  0.97184122    -0.26000
C2824       C  0.26141390  0.41094040  0.96560402     0.06100
C2825       C  0.25797132  0.40156213  0.97232920    -0.30900
O2826       O  0.26044481  0.40266487  0.01503121    -0.22700
C2827       C  0.26451878  0.41162348  0.02094402    -0.02700
C2828       C  0.26827404  0.42053536  0.01384647    -0.17200
H2829       H  0.27173108  0.43065345  0.99169517     0.20800
H2830       H  0.25462759  0.39102300  0.99485075     0.19200
H2831       H  0.25410097  0.39359742  0.96948973     0.19100
H2832       H  0.27182977  0.42877172  0.01629706     0.15000
C2833       C  0.26429940  0.51044076  0.09334572     0.30400
C2834       C  0.25851548  0.50069473  0.09770470    -0.35900
C2835       C  0.26239716  0.48992131  0.09366746     0.16400
C2836       C  0.27131481  0.48893374  0.08589732     0.22200
C2837       C  0.27713592  0.49857058  0.08170655    -0.34000
C2838       C  0.27326589  0.50922494  0.08567911     0.16300
O2839       O  0.26171809  0.52139949  0.09521118    -0.26000
C2840       C  0.26913497  0.52713401  0.08858427     0.06100
C2841       C  0.27651907  0.51996893  0.08254321    -0.30900
O2842       O  0.27310863  0.47828173  0.08257404    -0.22700
C2843       C  0.26536227  0.47220253  0.08832622    -0.02700
C2844       C  0.25844489  0.47894395  0.09545599    -0.17200
H2845       H  0.25129506  0.50147035  0.10351323     0.20800
H2846       H  0.28396902  0.49782649  0.07543076     0.19200
H2847       H  0.28307702  0.52232645  0.07636684     0.19100
H2848       H  0.25126367  0.47623550  0.10070334     0.15000
C2849       C  0.64506564  0.25279509  0.14526533     0.30400
C2850       C  0.63342138  0.25130798  0.14282852    -0.35900
C2851       C  0.63021760  0.25276429  0.13121678     0.16400
C2852       C  0.63793605  0.25540753  0.12257685     0.22200
C2853       C  0.64955841  0.25698943  0.12503278    -0.34000
C2854       C  0.65274082  0.25564531  0.13665585     0.16300
O2855       O  0.64996006  0.25173980  0.15549041    -0.26000
C2856       C  0.66090682  0.25410359  0.15344019     0.06100
C2857       C  0.66310835  0.25660158  0.14185422    -0.30900
O2858       O  0.63310726  0.25617958  0.11229575    -0.22700
C2859       C  0.62212238  0.25406957  0.11437323    -0.02700
C2860       C  0.61983553  0.25191252  0.12601037    -0.17200
H2861       H  0.62729731  0.24914478  0.14950580     0.20800
H2862       H  0.65569103  0.25911222  0.11835141     0.19200
H2863       H  0.67120402  0.25863514  0.13781703     0.19100
H2864       H  0.61172958  0.24990207  0.13003757     0.15000
C2865       C  0.36371773  0.24865890  0.14163570     0.30400
C2866       C  0.37501398  0.24556593  0.13895139    -0.35900
C2867       C  0.37864838  0.24786249  0.12759264     0.16400
C2868       C  0.37161030  0.25271967  0.11936837     0.22200
C2869       C  0.36034946  0.25597443  0.12210973    -0.34000
C2870       C  0.35675597  0.25379942  0.13352641     0.16300
O2871       O  0.35852074  0.24706696  0.15165696    -0.26000
C2872       C  0.34808849  0.25136554  0.15006050     0.06100
C2873       C  0.34653303  0.25570647  0.13890608    -0.30900
O2874       O  0.37664661  0.25365214  0.10915568    -0.22700
C2875       C  0.38710682  0.24947855  0.11090301    -0.02700
C2876       C  0.38883684  0.24581478  0.12223946    -0.17200
H2877       H  0.38055774  0.24155862  0.14525946     0.20800
H2878       H  0.35475085  0.25983599  0.11576129     0.19200
H2879       H  0.33891759  0.25946564  0.13520158     0.19100
H2880       H  0.39640726  0.24193143  0.12591718     0.15000
C2881       C  0.51575619  0.23868929  0.07939356     0.30400
C2882       C  0.50627854  0.23577239  0.07272434    -0.35900
C2883       C  0.49562684  0.23832879  0.07751302     0.16400
C2884       C  0.49424300  0.24338884  0.08820377     0.22200
C2885       C  0.50383317  0.24631401  0.09497601    -0.34000
C2886       C  0.51462388  0.24375399  0.09012391     0.16300
O2887       O  0.52643767  0.23739725  0.07619328    -0.26000
C2888       C  0.53242975  0.24162480  0.08492719     0.06100
C2889       C  0.52555253  0.24569872  0.09393422    -0.30900
O2890       O  0.48332470  0.24516290  0.09074595    -0.22700
C2891       C  0.47777503  0.24119771  0.08149218    -0.02700
C2892       C  0.48505988  0.23685706  0.07305762    -0.17200
H2893       H  0.50716599  0.23192565  0.06424858     0.20800
H2894       H  0.50295462  0.25042060  0.10332568     0.19200
H2895       H  0.52819152  0.24980415  0.10188113     0.19100
H2896       H  0.48291384  0.23320271  0.06474366     0.15000
C2897       C  0.59101571  0.24849594  0.00369507     0.30400
C2898       C  0.58476755  0.24593713  0.99376595    -0.35900
C2899       C  0.58953579  0.24946461  0.98326416     0.16400
C2900       C  0.59984834  0.25509876  0.98238577     0.22200
C2901       C  0.60621740  0.25766880  0.99245744    -0.34000
C2902       C  0.60135540  0.25414648  0.00313428     0.16300
O2903       O  0.58774227  0.24621047  0.01432994    -0.26000
C2904       C  0.59601301  0.25037955  0.02092517     0.06100
C2905       C  0.60480440  0.25543025  0.01444661    -0.30900
O2906       O  0.60241504  0.25772641  0.97146555    -0.22700
C2907       C  0.59352595  0.25373052  0.96543421    -0.02700
C2908       C  0.58535028  0.24852364  0.97241761    -0.17200
H2909       H  0.57659667  0.24161996  0.99422070     0.20800
H2910       H  0.61427115  0.26220374  0.99202187     0.19200
H2911       H  0.61242786  0.25962164  0.01759532     0.19100
H2912       H  0.57735815  0.24462188  0.96989806     0.15000
C2913       C  0.36810815  0.25470535  0.86119450     0.30400
C2914       C  0.35673639  0.25761452  0.85867367    -0.35900
C2915       C  0.35328665  0.25613410  0.84714340     0.16400
C2916       C  0.36045810  0.25192188  0.83867269     0.22200
C2917       C  0.37187983  0.24910388  0.84116619    -0.34000
C2918       C  0.37537787  0.25072811  0.85268159     0.16300
O2919       O  0.37309345  0.25538079  0.87141403    -0.26000
C2920       C  0.38376129  0.25190954  0.86942852     0.06100
C2921       C  0.38566404  0.24893043  0.85790875    -0.30900
O2922       O  0.35530072  0.25088500  0.82856199    -0.22700
C2923       C  0.34469108  0.25462737  0.83052321    -0.02700
C2924       C  0.34301028  0.25801910  0.84196827    -0.17200
H2925       H  0.35096355  0.26079740  0.86525547     0.20800
H2926       H  0.37762985  0.24584345  0.83459969     0.19200
H2927       H  0.39346300  0.24578870  0.85398417     0.19100
H2928       H  0.33525139  0.26110279  0.84600804     0.15000
C2929       C  0.40606399  0.24146938  0.00085283     0.30400
C2930       C  0.39949749  0.24447221  0.99104088    -0.35900
C2931       C  0.40489573  0.24308299  0.98016836     0.16400
C2932       C  0.41593514  0.23904287  0.97917703     0.22200
C2933       C  0.42236130  0.23596775  0.98884513    -0.34000
C2934       C  0.41701791  0.23731870  0.99955262     0.16300
O2935       O  0.40316787  0.24257408  0.01192631    -0.26000
C2936       C  0.41245918  0.23905049  0.01763469     0.06100
C2937       C  0.42122057  0.23561284  0.01028865    -0.30900
O2938       O  0.41956112  0.23863515  0.96843838    -0.22700
C2939       C  0.41079262  0.24238555  0.96223478    -0.02700
C2940       C  0.40135009  0.24530256  0.96904773    -0.17200
H2941       H  0.39091246  0.24783229  0.99182638     0.20800
H2942       H  0.43105684  0.23290188  0.98807335     0.19200
H2943       H  0.42968873  0.23262877  0.01248481     0.19100
H2944       H  0.39319537  0.24866944  0.96624857     0.15000
C2945       C  0.51285435  0.25023312  0.89387874     0.30400
C2946       C  0.50287079  0.25244632  0.88737845    -0.35900
C2947       C  0.49238632  0.24953372  0.89273459     0.16400
C2948       C  0.49188295  0.24481037  0.90368901     0.22200
C2949       C  0.50174255  0.24258890  0.91008688    -0.34000
C2950       C  0.51208608  0.24547725  0.90479172     0.16300
O2951       O  0.52359570  0.25252334  0.89090529    -0.26000
C2952       C  0.52964967  0.24919962  0.90012601     0.06100
C2953       C  0.52285453  0.24473278  0.90892447    -0.30900
O2954       O  0.48138715  0.24295066  0.90726785    -0.22700
C2955       C  0.47488053  0.24643795  0.89854533    -0.02700
C2956       C  0.48124076  0.25063377  0.88919727    -0.17200
H2957       H  0.50323361  0.25628007  0.87884294     0.20800
H2958       H  0.50136193  0.23897820  0.91872231     0.19200
H2959       H  0.52544770  0.24153487  0.91731532     0.19100
H2960       H  0.47812042  0.25413160  0.88111745     0.15000
C2961       C  0.85362760  0.24486465  0.63818464     0.30400
C2962       C  0.85581759  0.24170933  0.62665115    -0.35900
C2963       C  0.86695173  0.24370326  0.62256472     0.16400
C2964       C  0.87540705  0.24832159  0.62940208     0.22200
C2965       C  0.87317706  0.25157664  0.64091234    -0.34000
C2966       C  0.86198890  0.24973515  0.64495285     0.16300
O2967       O  0.84385660  0.24365535  0.64377216    -0.26000
C2968       C  0.84587246  0.24794317  0.65426230     0.06100
C2969       C  0.85705094  0.25187921  0.65546411    -0.30900
O2970       O  0.88527094  0.24922104  0.62388131    -0.22700
C2971       C  0.88308784  0.24525141  0.61330866    -0.02700
C2972       C  0.87180071  0.24173241  0.61199708    -0.17200
H2973       H  0.84929338  0.23795786  0.62124317     0.20800
H2974       H  0.87970976  0.25528745  0.64633770     0.19200
H2975       H  0.86103749  0.25554088  0.66303703     0.19100
H2976       H  0.86779446  0.23812028  0.60440996     0.15000
C2977       C  0.79709176  0.22009617  0.67715651     0.30400
C2978       C  0.78862100  0.21466389  0.68382050    -0.35900
C2979       C  0.78218379  0.20620580  0.67815892     0.16400
C2980       C  0.78395855  0.20327364  0.66674627     0.22200
C2981       C  0.79243170  0.20870336  0.66008492    -0.34000
C2982       C  0.79887609  0.21715779  0.66574671     0.16300
O2983       O  0.80407699  0.22825836  0.68068572    -0.26000
C2984       C  0.81050729  0.23058539  0.67144170     0.06100
C2985       C  0.80759055  0.22391025  0.66187420    -0.30900
O2986       O  0.77694301  0.19514440  0.66320056    -0.22700
C2987       C  0.77050508  0.19283554  0.67243818    -0.02700
C2988       C  0.77346011  0.19947424  0.68202419    -0.17200
H2989       H  0.78714041  0.21688972  0.69278695     0.20800
H2990       H  0.79389907  0.20648800  0.65111472     0.19200
H2991       H  0.81121939  0.22404784  0.65326316     0.19100
H2992       H  0.76983758  0.19935798  0.69063886     0.15000
C2993       C  0.74975412  0.14320325  0.64485136     0.30400
C2994       C  0.74721447  0.13170562  0.64206726    -0.35900
C2995       C  0.74997948  0.12821720  0.63077155     0.16400
C2996       C  0.75475988  0.13558125  0.62272069     0.22200
C2997       C  0.75734314  0.14705005  0.62551923    -0.34000
C2998       C  0.75472627  0.15048269  0.63685090     0.16300
O2999       O  0.74807569  0.14823635  0.65495101    -0.26000
C3000       C  0.75215188  0.15885742  0.65345758     0.06100
C3001       C  0.75638263  0.16071548  0.64232733    -0.30900
O3002       O  0.75660515  0.13053886  0.61266834    -0.22700
C3003       C  0.75306299  0.11975817  0.61430551    -0.02700
C3004       C  0.74887638  0.11780961  0.62542477    -0.17200
H3005       H  0.74345090  0.12585921  0.64830444     0.20800
H3006       H  0.76122729  0.15286231  0.61932439     0.19200
H3007       H  0.76011154  0.16848209  0.63875916     0.19100
H3008       H  0.74546952  0.10990587  0.62901685     0.15000
C3009       C  0.70916640  0.17856440  0.71814417     0.30400
C3010       C  0.71862444  0.18468849  0.71391678    -0.35900
C3011       C  0.72419792  0.17988157  0.70431138     0.16400
C3012       C  0.72073928  0.16975810  0.69920391     0.22200
C3013       C  0.71128818  0.16361716  0.70345271    -0.34000
C3014       C  0.70570373  0.16842740  0.71306445     0.16300
O3015       O  0.70255697  0.18162258  0.72686729    -0.26000
C3016       C  0.69468667  0.17335044  0.72744563     0.06100
C3017       C  0.69630088  0.16487665  0.71903088    -0.30900
O3018       O  0.72717118  0.16689548  0.69026347    -0.22700
C3019       C  0.73492230  0.17527879  0.68961140    -0.02700
C3020       C  0.73340010  0.18361910  0.69817874    -0.17200
H3021       H  0.72139553  0.19268784  0.71779320     0.20800
H3022       H  0.70844007  0.15568607  0.69949566     0.19200
H3023       H  0.69126319  0.15727018  0.71733632     0.19100
H3024       H  0.73822768  0.19139120  0.69973599     0.15000
C3025       C  0.68064460  0.20796539  0.76951860     0.30400
C3026       C  0.68653728  0.21779804  0.77329170    -0.35900
C3027       C  0.68201885  0.22334476  0.78307689     0.16400
C3028       C  0.67238965  0.21948739  0.78874827     0.22200
C3029       C  0.66650352  0.20966985  0.78497338    -0.34000
C3030       C  0.67100860  0.20413476  0.77519352     0.16300
O3031       O  0.68341870  0.20137791  0.76065209    -0.26000
C3032       C  0.67544570  0.19317802  0.76058190     0.06100
C3033       C  0.66749147  0.19452229  0.76949875    -0.30900
O3034       O  0.66971886  0.22590090  0.79776190    -0.22700
C3035       C  0.67773202  0.23404202  0.79795099    -0.02700
C3036       C  0.68562345  0.23283734  0.78893818    -0.17200
H3037       H  0.69413934  0.22087434  0.76893917     0.20800
H3038       H  0.65895945  0.20653539  0.78938720     0.19200
H3039       H  0.66022895  0.18919568  0.77166712     0.19100
H3040       H  0.69299860  0.23806787  0.78692310     0.15000
C3041       C  0.65202964  0.25523531  0.84913202     0.30400
C3042       C  0.64937389  0.25862564  0.86049251    -0.35900
C3043       C  0.63814416  0.25648617  0.86421901     0.16400
C3044       C  0.63004127  0.25149216  0.85720731     0.22200
C3045       C  0.63272885  0.24802236  0.84588102    -0.34000
C3046       C  0.64399195  0.25003653  0.84220769     0.16300
O3047       O  0.66196735  0.25648420  0.84385633    -0.26000
C3048       C  0.66034912  0.25191453  0.83341980     0.06100
C3049       C  0.64928522  0.24775413  0.83194590    -0.30900
O3050       O  0.62002999  0.25044844  0.86239630    -0.22700
C3051       C  0.62175198  0.25472038  0.87293133    -0.02700
C3052       C  0.63288612  0.25858025  0.87455301    -0.17200
H3053       H  0.65562537  0.26264188  0.86603805     0.20800
H3054       H  0.62647772  0.24402134  0.84032336     0.19200
H3055       H  0.64558228  0.24382436  0.82436122     0.19100
H3056       H  0.63653938  0.26245466  0.88219294     0.15000
C3057       C  0.82349884  0.29039082  0.71939837     0.30400
C3058       C  0.81796186  0.28062397  0.71498146    -0.35900
C3059       C  0.82303976  0.27545378  0.70526577     0.16400
C3060       C  0.83287717  0.27957893  0.70019313     0.22200
C3061       C  0.83841821  0.28936917  0.70461219    -0.34000
C3062       C  0.83334549  0.29453961  0.71435690     0.16300
O3063       O  0.82021735  0.29656052  0.72840581    -0.26000
C3064       C  0.82805960  0.30483877  0.72924617     0.06100
C3065       C  0.83644537  0.30395492  0.72065280    -0.30900
O3066       O  0.83608710  0.27339460  0.69114316    -0.22700
C3067       C  0.82820709  0.26513307  0.69036408    -0.02700
C3068       C  0.81987560  0.26607464  0.69900548    -0.17200
H3069       H  0.81021480  0.27728126  0.71885342     0.20800
H3070       H  0.84614751  0.29272884  0.70072274     0.19200
H3071       H  0.84376895  0.30941206  0.71912435     0.19100
H3072       H  0.81246810  0.26074481  0.70056245     0.15000
C3073       C  0.70605802  0.28224560  0.82308119     0.30400
C3074       C  0.70970270  0.29219588  0.82885702    -0.35900
C3075       C  0.71996646  0.29704471  0.82492094     0.16400
C3076       C  0.72624420  0.29242412  0.81595680     0.22200
C3077       C  0.72265040  0.28240742  0.81024866    -0.34000
C3078       C  0.71234796  0.27758741  0.81414661     0.16300
O3079       O  0.69655792  0.27650188  0.82511615    -0.26000
C3080       C  0.69668209  0.26800809  0.81737604     0.06100
C3081       C  0.70638747  0.26828644  0.81032857    -0.30900
O3082       O  0.73534480  0.29862746  0.81341821    -0.22700
C3083       C  0.73495113  0.30736614  0.82086930    -0.02700
C3084       C  0.72551601  0.30676137  0.82825696    -0.17200
H3085       H  0.70477732  0.29600670  0.83580365     0.20800
H3086       H  0.72743885  0.27875314  0.80312261     0.19200
H3087       H  0.70879062  0.26257974  0.80335578     0.19100
H3088       H  0.72283868  0.31271581  0.83491500     0.15000
C3089       C  0.77771243  0.32157453  0.78730549     0.30400
C3090       C  0.78166496  0.31580467  0.77738755    -0.35900
C3091       C  0.79208518  0.31968229  0.77276615     0.16400
C3092       C  0.79815073  0.32863373  0.77756486     0.22200
C3093       C  0.79418646  0.33442395  0.78743955    -0.34000
C3094       C  0.78379355  0.33054094  0.79205487     0.16300
O3095       O  0.76839801  0.31913187  0.79327270    -0.26000
C3096       C  0.76845110  0.32664618  0.80198650     0.06100
C3097       C  0.77788124  0.33398627  0.80159413    -0.30900
O3098       O  0.80770718  0.33079329  0.77193545    -0.22700
C3099       C  0.80787549  0.32313641  0.76335272    -0.02700
C3100       C  0.79830114  0.31597434  0.76347765    -0.17200
H3101       H  0.77700679  0.30870103  0.77361840     0.20800
H3102       H  0.79893561  0.34140715  0.79132013     0.19200
H3103       H  0.78031891  0.34067624  0.80759191     0.19100
H3104       H  0.79614283  0.30905895  0.75762891     0.15000
C3105       C  0.86688726  0.37095488  0.75243607     0.30400
C3106       C  0.85527941  0.36831722  0.75384201    -0.35900
C3107       C  0.85209097  0.35696555  0.75122281     0.16400
C3108       C  0.85972963  0.34879672  0.74729351     0.22200
C3109       C  0.87135038  0.35142932  0.74590760    -0.34000
C3110       C  0.87457888  0.36273487  0.74870802     0.16300
O3111       O  0.87178334  0.38094965  0.75464897    -0.26000
C3112       C  0.88278250  0.37907803  0.75242207     0.06100
C3113       C  0.88501191  0.36789562  0.74870183    -0.30900
O3114       O  0.85486246  0.33871290  0.74539425    -0.22700
C3115       C  0.84397115  0.34039642  0.74828326    -0.02700
C3116       C  0.84178869  0.35162147  0.75196114    -0.17200
H3117       H  0.84918465  0.37462799  0.75692204     0.20800
H3118       H  0.87747552  0.34506600  0.74300102     0.19200
H3119       H  0.89314172  0.36411324  0.74635767     0.19100
H3120       H  0.83375765  0.35534623  0.75470700     0.15000
C3121       C  0.91402397  0.50897379  0.76659321     0.30400
C3122       C  0.91973966  0.49910037  0.77035867    -0.35900
C3123       C  0.91468013  0.48859962  0.76755046     0.16400
C3124       C  0.90461335  0.48771799  0.76146853     0.22200
C3125       C  0.89875984  0.49770744  0.75777284    -0.34000
C3126       C  0.90387717  0.50834034  0.76059288     0.16300
O3127       O  0.91777217  0.51956669  0.76770879    -0.26000
C3128       C  0.90995071  0.52597989  0.76246508     0.06100
C3129       C  0.90100990  0.51949836  0.75790469    -0.30900
O3130       O  0.90183868  0.47683614  0.75938160    -0.22700
C3131       C  0.91030660  0.47080883  0.76420131    -0.02700
C3132       C  0.91844926  0.47773991  0.76941701    -0.17200
H3133       H  0.92779430  0.49957269  0.77489403     0.20800
H3134       H  0.89095501  0.49722604  0.75281339     0.19200
H3135       H  0.89380352  0.52250392  0.75289527     0.19100
H3136       H  0.92622110  0.47518312  0.77375856     0.15000
C3137       C  0.99235887  0.59469686  0.75359329     0.30400
C3138       C  0.00224442  0.60021083  0.74928672    -0.35900
C3139       C  0.01279502  0.59544355  0.75274558     0.16400
C3140       C  0.01345217  0.58596225  0.75994530     0.22200
C3141       C  0.00367552  0.58058308  0.76430159    -0.34000
C3142       C  0.99324932  0.58527038  0.76082564     0.16300
O3143       O  0.98158361  0.59716343  0.75106819    -0.26000
C3144       C  0.97562085  0.58913112  0.75675441     0.06100
C3145       C  0.98249193  0.58159220  0.76297890    -0.30900
O3146       O  0.02397999  0.58247977  0.76167703    -0.22700
C3147       C  0.03032992  0.58979301  0.75559139    -0.02700
C3148       C  0.02385524  0.59812992  0.74985167    -0.17200
H3149       H  0.00174946  0.60748633  0.74343546     0.20800
H3150       H  0.00416771  0.57302364  0.76978516     0.19200
H3151       H  0.97995698  0.57422305  0.76813282     0.19100
H3152       H  0.02682071  0.60488542  0.74411937     0.15000
C3153       C  0.13485955  0.36985093  0.74754908     0.30400
C3154       C  0.14625473  0.36733319  0.75027785    -0.35900
C3155       C  0.15016609  0.35636393  0.74708019     0.16400
C3156       C  0.14340022  0.34845830  0.74145405     0.22200
C3157       C  0.13196604  0.35094680  0.73878622    -0.34000
C3158       C  0.12799932  0.36187683  0.74212151     0.16300
O3159       O  0.12947054  0.37959066  0.74973903    -0.26000
C3160       C  0.11897013  0.37781253  0.74577856     0.06100
C3161       C  0.11754038  0.36692235  0.74097362    -0.30900
O3162       O  0.14887014  0.33876887  0.73918755    -0.22700
C3163       C  0.15925774  0.34042777  0.74353741    -0.02700
C3164       C  0.16052679  0.35126125  0.74854552    -0.17200
H3165       H  0.15167592  0.37347963  0.75462454     0.20800
H3166       H  0.12654135  0.34478711  0.73446299     0.19200
H3167       H  0.10995527  0.36331655  0.73709222     0.19100
H3168       H  0.16801351  0.35492404  0.75255829     0.15000
C3169       C  0.99000609  0.40145486  0.75606928     0.30400
C3170       C  0.99955022  0.39521617  0.75198083    -0.35900
C3171       C  0.01024576  0.40066125  0.75318889     0.16400
C3172       C  0.01131837  0.41147157  0.75801934     0.22200
C3173       C  0.00189441  0.41761431  0.76209187    -0.34000
C3174       C  0.99134921  0.41220106  0.76094582     0.16300
O3175       O  0.97914027  0.39829226  0.75570556    -0.26000
C3176       C  0.97360331  0.40718347  0.76044105     0.06100
C3177       C  0.98083214  0.41600077  0.76386862    -0.30900
O3178       O  0.02190112  0.41510150  0.75829139    -0.22700
C3179       C  0.02788701  0.40656339  0.75364489    -0.02700
C3180       C  0.02111458  0.39727316  0.75027525    -0.17200
H3181       H  0.99869947  0.38678036  0.74810885     0.20800
H3182       H  0.00273293  0.42609898  0.76587315     0.19200
H3183       H  0.97867884  0.42417785  0.76779760     0.19100
H3184       H  0.02378243  0.38929348  0.74626171     0.15000
C3185       C  0.08732788  0.48627230  0.76112883     0.30400
C3186       C  0.08095874  0.49616777  0.76351030    -0.35900
C3187       C  0.08648885  0.50664745  0.76161123     0.16400
C3188       C  0.09755759  0.50746372  0.75760263     0.22200
C3189       C  0.10400637  0.49746403  0.75523571    -0.34000
C3190       C  0.09844088  0.48686449  0.75717961     0.16300
O3191       O  0.08357627  0.47566254  0.76203802    -0.26000
C3192       C  0.09233983  0.46921212  0.75868842     0.06100
C3193       C  0.10190089  0.47568220  0.75557582    -0.30900
O3194       O  0.10083321  0.51831237  0.75625358    -0.22700
C3195       C  0.09170171  0.52440428  0.75948653    -0.02700
C3196       C  0.08257922  0.51754283  0.76290187    -0.17200
H3197       H  0.07221476  0.49571927  0.76652794     0.20800
H3198       H  0.11267596  0.49791390  0.75201148     0.19200
H3199       H  0.11003351  0.47262862  0.75234340     0.19100
H3200       H  0.07417965  0.52015981  0.76579601     0.15000
C3201       C  0.75709124  0.62665630  0.13270713     0.30400
C3202       C  0.76012492  0.62966462  0.14406641    -0.35900
C3203       C  0.75839836  0.64125623  0.14714001     0.16400
C3204       C  0.75386135  0.64926624  0.13960654     0.22200
C3205       C  0.75089594  0.64627861  0.12826254    -0.34000
C3206       C  0.75273977  0.63475580  0.12515221     0.16300
O3207       O  0.75812711  0.61638229  0.12790655    -0.26000
C3208       C  0.75446754  0.61797183  0.11711663     0.06100
C3209       C  0.75102122  0.62924047  0.11493308    -0.30900
O3210       O  0.75281867  0.65956409  0.14428455    -0.22700
C3211       C  0.75684687  0.65824578  0.15495929    -0.02700
C3212       C  0.76046892  0.64699591  0.15720781    -0.17200
H3213       H  0.76365107  0.62343309  0.15005324     0.20800
H3214       H  0.74744272  0.65252881  0.12225327     0.19200
H3215       H  0.74777341  0.63285932  0.10695892     0.19100
H3216       H  0.76393320  0.64349861  0.16514137     0.15000
C3217       C  0.75653737  0.37528685  0.13152298     0.30400
C3218       C  0.75920793  0.37259142  0.14304499    -0.35900
C3219       C  0.75654574  0.36136302  0.14667269     0.16400
C3220       C  0.75146704  0.35340315  0.13950720     0.22200
C3221       C  0.74884924  0.35607468  0.12797243    -0.34000
C3222       C  0.75164708  0.36724685  0.12429846     0.16300
O3223       O  0.75853525  0.38517021  0.12625040    -0.26000
C3224       C  0.75498250  0.38340302  0.11548177     0.06100
C3225       C  0.75061832  0.37240036  0.11375411    -0.30900
O3226       O  0.74966889  0.34344710  0.14469924    -0.22700
C3227       C  0.75374627  0.34495939  0.15532631    -0.02700
C3228       C  0.75814767  0.35598291  0.15703159    -0.17200
H3229       H  0.76319365  0.37877211  0.14873644     0.20800
H3230       H  0.74500791  0.34984077  0.12223701     0.19200
H3231       H  0.74729471  0.36871421  0.10586582     0.19100
H3232       H  0.76184826  0.35958191  0.16478321     0.15000
C3233       C  0.77814765  0.51100285  0.08693538     0.30400
C3234       C  0.78271111  0.50149447  0.08110763    -0.35900
C3235       C  0.78012167  0.49069032  0.08579784     0.16400
C3236       C  0.77355269  0.48926897  0.09562314     0.22200
C3237       C  0.76914450  0.49885145  0.10161191    -0.34000
C3238       C  0.77169301  0.50972780  0.09686418     0.16300
O3239       O  0.77865262  0.52174676  0.08335931    -0.26000
C3240       C  0.77254627  0.52754252  0.09110781     0.06100
C3241       C  0.76805374  0.52054663  0.09980258    -0.30900
O3242       O  0.77143919  0.47829351  0.09786685    -0.22700
C3243       C  0.77671552  0.47268520  0.08933662    -0.02700
C3244       C  0.78231275  0.47998412  0.08164684    -0.17200
H3245       H  0.78751562  0.50243778  0.07315080     0.20800
H3246       H  0.76371541  0.49787775  0.10914038     0.19200
H3247       H  0.76239225  0.52296858  0.10680293     0.19100
H3248       H  0.78688868  0.47776948  0.07381600     0.15000
C3249       C  0.75862362  0.59558648  0.98684385     0.30400
C3250       C  0.75594260  0.60176220  0.99701192    -0.35900
C3251       C  0.75845093  0.59616874  0.00756974     0.16400
C3252       C  0.76321139  0.58528878  0.00797267     0.22200
C3253       C  0.76583038  0.57917550  0.99792441    -0.34000
C3254       C  0.76338830  0.58473495  0.98750388     0.16300
O3255       O  0.75711442  0.59898797  0.97597874    -0.26000
C3256       C  0.76102935  0.59014242  0.96973384     0.06100
C3257       C  0.76500659  0.58110215  0.97652891    -0.30900
O3258       O  0.76487905  0.58156963  0.01856737    -0.22700
C3259       C  0.76116911  0.59010677  0.02521932    -0.02700
C3260       C  0.75704835  0.59947872  0.01887670    -0.17200
H3261       H  0.75220450  0.61029001  0.99672051     0.20800
H3262       H  0.76956043  0.57064133  0.99821530     0.19200
H3263       H  0.76856792  0.57293314  0.97383019     0.19100
H3264       H  0.75351373  0.60747228  0.02210528     0.15000
C3265       C  0.75069648  0.36651856  0.86895941     0.30400
C3266       C  0.74850547  0.35488937  0.86654212    -0.35900
C3267       C  0.74994222  0.35154866  0.85497818     0.16400
C3268       C  0.75342754  0.35907988  0.84641680     0.22200
C3269       C  0.75549125  0.37072771  0.84880858    -0.34000
C3270       C  0.75392913  0.37409695  0.86033415     0.16300
O3271       O  0.75017416  0.37146166  0.87920628    -0.26000
C3272       C  0.75299935  0.38236466  0.87707059     0.06100
C3273       C  0.75536918  0.38451021  0.86547379    -0.30900
O3274       O  0.75451189  0.35404398  0.83626731    -0.22700
C3275       C  0.75153938  0.34315956  0.83830048    -0.02700
C3276       C  0.74860264  0.34112148  0.84981173    -0.17200
H3277       H  0.74593778  0.34886163  0.87321119     0.20800
H3278       H  0.75819379  0.37672525  0.84216558     0.19200
H3279       H  0.75805839  0.39249867  0.86146466     0.19100
H3280       H  0.74605880  0.33309092  0.85383393     0.15000
C3281       C  0.77174909  0.41274101  0.98558844     0.30400
C3282       C  0.77553743  0.41875556  0.99526366    -0.35900
C3283       C  0.77303959  0.41376981  0.00594754     0.16400
C3284       C  0.76718180  0.40353838  0.00718831     0.22200
C3285       C  0.76338573  0.39741960  0.99739374    -0.34000
C3286       C  0.76592931  0.40244548  0.98656503     0.16300
O3287       O  0.77296213  0.41617969  0.97485155    -0.26000
C3288       C  0.76791976  0.40803159  0.96868766     0.06100
C3289       C  0.76338347  0.39917952  0.97547547    -0.30900
O3290       O  0.76562656  0.40074654  0.01820616    -0.22700
C3291       C  0.77060404  0.40935206  0.02393605    -0.02700
C3292       C  0.77534102  0.41762739  0.01669361    -0.17200
H3293       H  0.78001963  0.42687226  0.99450799     0.20800
H3294       H  0.75869916  0.38942341  0.99815659     0.19200
H3295       H  0.75868866  0.39166354  0.97268485     0.19100
H3296       H  0.77973498  0.42548936  0.01896807     0.15000
C3297       C  0.76500816  0.48923487  0.89936340     0.30400
C3298       C  0.75993257  0.49903689  0.89430205    -0.35900
C3299       C  0.76273958  0.50972178  0.89930778     0.16400
C3300       C  0.76997806  0.51061278  0.90865826     0.22200
C3301       C  0.77510176  0.50089870  0.91360440    -0.34000
C3302       C  0.77234015  0.49031031  0.90860996     0.16300
O3303       O  0.76313794  0.47832030  0.89662647    -0.26000
C3304       C  0.76936714  0.47243129  0.90426753     0.06100
C3305       C  0.77531200  0.47948697  0.91183313    -0.30900
O3306       O  0.77111973  0.52126972  0.91231443    -0.22700
C3307       C  0.76463894  0.52741880  0.90518456    -0.02700
C3308       C  0.75920628  0.52071275  0.89686732    -0.17200
H3309       H  0.75403658  0.49836543  0.88714948     0.20800
H3310       H  0.78067308  0.50153229  0.92102408     0.19200
H3311       H  0.78069181  0.47700014  0.91901065     0.19100
H3312       H  0.75332439  0.52348885  0.89021898     0.15000
C3313       C  0.25054665  0.85019165  0.63808572     0.30400
C3314       C  0.24870341  0.85280681  0.62637150    -0.35900
C3315       C  0.25115491  0.86416647  0.62296960     0.16400
C3316       C  0.25500364  0.87242099  0.63058859     0.22200
C3317       C  0.25689758  0.86979222  0.64227506    -0.34000
C3318       C  0.25458670  0.85840760  0.64563530     0.16300
O3319       O  0.24904425  0.84006946  0.64310626    -0.26000
C3320       C  0.25229879  0.84179079  0.65399449     0.06100
C3321       C  0.25580332  0.85307095  0.65604267    -0.30900
O3322       O  0.25670282  0.88249840  0.62556934    -0.22700
C3323       C  0.25399646  0.88066211  0.61455986    -0.02700
C3324       C  0.25051760  0.86940044  0.61243014    -0.17200
H3325       H  0.24568362  0.84641395  0.62031821     0.20800
H3326       H  0.26005558  0.87614351  0.64829726     0.19200
H3327       H  0.25882053  0.85680311  0.66403167     0.19100
H3328       H  0.24785942  0.86564097  0.60431931     0.15000
C3329       C  0.22686731  0.79022655  0.67498922     0.30400
C3330       C  0.22318849  0.78000468  0.68037002    -0.35900
C3331       C  0.21337493  0.77485077  0.67572082     0.16400
C3332       C  0.20758068  0.77940889  0.66641674     0.22200
C3333       C  0.21127753  0.78960576  0.66101706    -0.34000
C3334       C  0.22107253  0.79476607  0.66567784     0.16300
O3335       O  0.23575889  0.79654273  0.67797084    -0.26000
C3336       C  0.23572715  0.80529237  0.67045969     0.06100
C3337       C  0.22669834  0.80457389  0.66261734    -0.30900
O3338       O  0.19846200  0.77333033  0.66367447    -0.22700
C3339       C  0.19832393  0.76471338  0.67133408    -0.02700
C3340       C  0.20750453  0.76525083  0.67901210    -0.17200
H3341       H  0.22761141  0.77637255  0.68773627     0.20800
H3342       H  0.20676771  0.79332145  0.65374765     0.19200
H3343       H  0.22444564  0.81038061  0.65566227     0.19100
H3344       H  0.20958718  0.75955749  0.68611664     0.15000
C3345       C  0.13961839  0.74864083  0.62319875     0.30400
C3346       C  0.15119964  0.75057298  0.62565498    -0.35900
C3347       C  0.15445744  0.74925761  0.63727011     0.16400
C3348       C  0.14689155  0.74609619  0.64586422     0.22200
C3349       C  0.13528874  0.74423418  0.64342289    -0.34000
C3350       C  0.13200170  0.74568017  0.63182436     0.16300
O3351       O  0.13472212  0.74945986  0.61294884    -0.26000
C3352       C  0.12378811  0.74706379  0.61502113     0.06100
C3353       C  0.12160626  0.74466206  0.62663427    -0.30900
O3354       O  0.15182578  0.74518880  0.65609164    -0.22700
C3355       C  0.16269534  0.74795400  0.65407822    -0.02700
C3356       C  0.16479527  0.75057651  0.64248994    -0.17200
H3357       H  0.15723963  0.75298121  0.61898382     0.20800
H3358       H  0.12924464  0.74185396  0.65009981     0.19200
H3359       H  0.11354898  0.74246140  0.63066158     0.19100
H3360       H  0.17280742  0.75293340  0.63845998     0.15000
C3361       C  0.18020431  0.70655835  0.72066810     0.30400
C3362       C  0.18559327  0.71675536  0.71704697    -0.35900
C3363       C  0.18147501  0.72173960  0.70679970     0.16400
C3364       C  0.17262958  0.71707231  0.70054907     0.22200
C3365       C  0.16716542  0.70691062  0.70422983    -0.34000
C3366       C  0.17132146  0.70188648  0.71446948     0.16300
O3367       O  0.18298902  0.70025279  0.72974578    -0.26000
C3368       C  0.17579892  0.69135849  0.72946376     0.06100
C3369       C  0.16831041  0.69198373  0.72009167    -0.30900
O3370       O  0.17044390  0.72296743  0.69101107    -0.22700
C3371       C  0.17800932  0.73155792  0.69108845    -0.02700
C3372       C  0.18505395  0.73119345  0.70081399    -0.17200
H3373       H  0.19266275  0.72042955  0.72177466     0.20800
H3374       H  0.16029483  0.70307054  0.69933697     0.19200
H3375       H  0.16176580  0.68594706  0.71754155     0.19100
H3376       H  0.19194504  0.73689561  0.70317980     0.15000
C3377       C  0.13755410  0.62336214  0.74766210     0.30400
C3378       C  0.14895053  0.62607837  0.75030408    -0.35900
C3379       C  0.15230165  0.63754116  0.74823711     0.16400
C3380       C  0.14499697  0.64571684  0.74373099     0.22200
C3381       C  0.13361094  0.64301827  0.74114475    -0.34000
C3382       C  0.13022358  0.63161818  0.74334039     0.16300
O3383       O  0.13252307  0.61325700  0.74909300    -0.26000
C3384       C  0.12180019  0.61510173  0.74572709     0.06100
C3385       C  0.11990580  0.62637907  0.74207020    -0.30900
O3386       O  0.14991505  0.65586769  0.74239286    -0.22700
C3387       C  0.16052142  0.65427671  0.74620442    -0.02700
C3388       C  0.16246570  0.64299920  0.74996238    -0.17200
H3389       H  0.15476834  0.61972979  0.75381962     0.20800
H3390       H  0.12776584  0.64939639  0.73773457     0.19200
H3391       H  0.11204848  0.63018514  0.73897436     0.19100
H3392       H  0.17026289  0.63930004  0.75333245     0.15000
C3393       C  0.22136038  0.67105370  0.79172311     0.30400
C3394       C  0.21153812  0.66509560  0.78822210    -0.35900
C3395       C  0.20613071  0.66925863  0.77822849     0.16400
C3396       C  0.21007256  0.67865602  0.77210934     0.22200
C3397       C  0.21989670  0.68463315  0.77562332    -0.34000
C3398       C  0.22533137  0.68044427  0.78561055     0.16300
O3399       O  0.22769937  0.66865527  0.80083071    -0.26000
C3400       C  0.23591355  0.67660325  0.80063789     0.06100
C3401       C  0.23482464  0.68417556  0.79128082    -0.30900
O3402       O  0.20365101  0.68107568  0.76305199    -0.22700
C3403       C  0.19545260  0.67310219  0.76329799    -0.02700
C3404       C  0.19661940  0.66552582  0.77263042    -0.17200
H3405       H  0.20832979  0.65772088  0.79296696     0.20800
H3406       H  0.22307692  0.69203632  0.77090567     0.19200
H3407       H  0.24013913  0.69142967  0.78893408     0.19100
H3408       H  0.19125714  0.65834903  0.77510078     0.15000
C3409       C  0.25039676  0.64484273  0.84563232     0.30400
C3410       C  0.24798136  0.63330150  0.84839885    -0.35900
C3411       C  0.25007700  0.62996957  0.85988556     0.16400
C3412       C  0.25418137  0.63748211  0.86811190     0.22200
C3413       C  0.25665935  0.64899636  0.86532752    -0.34000
C3414       C  0.25465704  0.65229679  0.85382275     0.16300
O3415       O  0.24909630  0.64980647  0.83542614    -0.26000
C3416       C  0.25269439  0.66057121  0.83705149     0.06100
C3417       C  0.25624328  0.66258152  0.84836555    -0.30900
O3418       O  0.25547264  0.63254433  0.87832457    -0.22700
C3419       C  0.25220487  0.62169881  0.87661519    -0.02700
C3420       C  0.24877837  0.61960256  0.86529267    -0.17200
H3421       H  0.24473239  0.62733357  0.84203990     0.20800
H3422       H  0.25996305  0.65495164  0.87167220     0.19200
H3423       H  0.25941760  0.67049902  0.85208169     0.19100
H3424       H  0.24577084  0.61161590  0.86158625     0.15000
C3425       C  0.29704078  0.72316671  0.81637668     0.30400
C3426       C  0.28767444  0.71919320  0.80994614    -0.35900
C3427       C  0.28154429  0.70994632  0.81476823     0.16400
C3428       C  0.28442773  0.70498723  0.82519897     0.22200
C3429       C  0.29375383  0.70898918  0.83164776    -0.34000
C3430       C  0.29989859  0.71820429  0.82681236     0.16300
O3431       O  0.30408314  0.73153548  0.81338664    -0.26000
C3432       C  0.31162539  0.73199082  0.82199870     0.06100
C3433       C  0.30936903  0.72384822  0.83062301    -0.30900
O3434       O  0.27770955  0.69629838  0.82797689    -0.22700
C3435       C  0.27034355  0.69559853  0.81923557    -0.02700
C3436       C  0.27235942  0.70395212  0.81074841    -0.17200
H3437       H  0.28540308  0.72296713  0.80169645     0.20800
H3438       H  0.29613366  0.70509396  0.83980789     0.19200
H3439       H  0.31399457  0.72219559  0.83853128     0.19100
H3440       H  0.26790061  0.70536618  0.80269295     0.15000
C3441       C  0.29966061  0.82656965  0.71342792     0.30400
C3442       C  0.29488455  0.83285916  0.70425487    -0.35900
C3443       C  0.28530601  0.82794584  0.69893285     0.16400
C3444       C  0.28073512  0.81752795  0.70231618     0.22200
C3445       C  0.28555576  0.81119445  0.71145951    -0.34000
C3446       C  0.29511373  0.81614568  0.71683282     0.16300
O3447       O  0.30845476  0.82969875  0.71980705    -0.26000
C3448       C  0.30962222  0.82119369  0.72749288     0.06100
C3449       C  0.30150860  0.81249309  0.72595686    -0.30900
O3450       O  0.27169800  0.81462906  0.69615415    -0.22700
C3451       C  0.27041681  0.82331242  0.68867816    -0.02700
C3452       C  0.27870887  0.83184415  0.69010070    -0.17200
H3453       H  0.29832918  0.84109237  0.70152518     0.20800
H3454       H  0.28203335  0.80302635  0.71426928     0.19200
H3455       H  0.30030206  0.80462505  0.73083323     0.19100
H3456       H  0.27984150  0.83984454  0.68541981     0.15000
C3457       C  0.33422390  0.79372891  0.77679704     0.30400
C3458       C  0.34064050  0.78930638  0.78607621    -0.35900
C3459       C  0.33588172  0.77984275  0.79199012     0.16400
C3460       C  0.32554172  0.77509227  0.78897118     0.22200
C3461       C  0.31914800  0.77950305  0.77972064    -0.34000
C3462       C  0.32390031  0.78892564  0.77381670     0.16300
O3463       O  0.33695346  0.80258938  0.77013949    -0.26000
C3464       C  0.32827481  0.80348730  0.76273446     0.06100
C3465       C  0.31990076  0.79514884  0.76469665    -0.30900
O3466       O  0.32264378  0.76635279  0.79566192    -0.22700
C3467       C  0.33121489  0.76538113  0.80315436    -0.02700
C3468       C  0.33972389  0.77361581  0.80123795    -0.17200
H3469       H  0.34875009  0.79300557  0.78853544     0.20800
H3470       H  0.31100151  0.77584977  0.77730717     0.19200
H3471       H  0.31190122  0.79385969  0.76024848     0.19100
H3472       H  0.34758921  0.77492716  0.80591766     0.15000
C3473       C  0.37897819  0.74644463  0.86204008     0.30400
C3474       C  0.37660531  0.74877146  0.85035481    -0.35900
C3475       C  0.36516069  0.74759097  0.84696393     0.16400
C3476       C  0.35665029  0.74420076  0.85449885     0.22200
C3477       C  0.35901204  0.74192573  0.86619780    -0.34000
C3478       C  0.37043406  0.74323013  0.86961854     0.16300
O3479       O  0.38906241  0.74707962  0.86708435    -0.26000
C3480       C  0.38695399  0.74429757  0.87807033     0.06100
C3481       C  0.37549410  0.74183207  0.88013679    -0.30900
O3482       O  0.34656544  0.74357615  0.84945641    -0.22700
C3483       C  0.34858301  0.74675320  0.83855217    -0.02700
C3484       C  0.36003614  0.74934456  0.83653018    -0.17200
H3485       H  0.38320911  0.75138655  0.84434101     0.20800
H3486       H  0.35239751  0.73936843  0.87222508     0.19200
H3487       H  0.37147833  0.73933470  0.88819865     0.19100
H3488       H  0.36402926  0.75202528  0.82851527     0.15000
C3489       C  0.49566696  0.73670371  0.90790757     0.30400
C3490       C  0.50569851  0.73304691  0.91324295    -0.35900
C3491       C  0.51584671  0.73687086  0.90822127     0.16400
C3492       C  0.51627277  0.74385257  0.89856107     0.22200
C3493       C  0.50611214  0.74750868  0.89311455    -0.34000
C3494       C  0.49582125  0.74363284  0.89818525     0.16300
O3495       O  0.48531080  0.73427474  0.91148984    -0.26000
C3496       C  0.47856204  0.73961565  0.90400020     0.06100
C3497       C  0.48459221  0.74559862  0.89545896    -0.30900
O3498       O  0.52691247  0.74657075  0.89565932    -0.22700
C3499       C  0.53323117  0.74122179  0.90364460    -0.02700
C3500       C  0.52672263  0.73506339  0.91158387    -0.17200
H3501       H  0.50559186  0.72768083  0.92091662     0.20800
H3502       H  0.50621198  0.75305896  0.88557960     0.19200
H3503       H  0.48121747  0.75077748  0.88846230     0.19100
H3504       H  0.52955121  0.73004845  0.91894012     0.15000
C3505       C  0.64140134  0.74737645  0.12221421     0.30400
C3506       C  0.65296856  0.74499904  0.12441058    -0.35900
C3507       C  0.65694342  0.74776866  0.13552297     0.16400
C3508       C  0.65005173  0.75263906  0.14387479     0.22200
C3509       C  0.63844186  0.75486202  0.14173445    -0.34000
C3510       C  0.63443660  0.75199799  0.13065678     0.16300
O3511       O  0.63598052  0.74574401  0.11234345    -0.26000
C3512       C  0.62534988  0.74924496  0.11450813     0.06100
C3513       C  0.62389030  0.75316910  0.12579334    -0.30900
O3514       O  0.65562184  0.75483395  0.15354830    -0.22700
C3515       C  0.66623701  0.75120886  0.15146054    -0.02700
C3516       C  0.66751368  0.74671051  0.14034237    -0.17200
H3517       H  0.65850904  0.74133326  0.11787836     0.20800
H3518       H  0.63293308  0.75864562  0.14822689     0.19200
H3519       H  0.61623475  0.75661094  0.12975339     0.19100
H3520       H  0.67515518  0.74334626  0.13629531     0.15000
C3521       C  0.59168311  0.74046513  0.00532691     0.30400
C3522       C  0.58537259  0.73761659  0.99553023    -0.35900
C3523       C  0.59070305  0.73958041  0.98490847     0.16400
C3524       C  0.60154330  0.74407578  0.98383675     0.22200
C3525       C  0.60794341  0.74694450  0.99375361    -0.34000
C3526       C  0.60257098  0.74492747  0.00452080     0.16300
O3527       O  0.58810656  0.73940047  0.01603665    -0.26000
C3528       C  0.59675172  0.74316328  0.02237304     0.06100
C3529       C  0.60606765  0.74671728  0.01570205    -0.30900
O3530       O  0.60469505  0.74518220  0.97285565    -0.22700
C3531       C  0.59570171  0.74130164  0.96696164    -0.02700
C3532       C  0.58680846  0.73773643  0.97408287    -0.17200
H3533       H  0.57682791  0.73412582  0.99615571     0.20800
H3534       H  0.61645775  0.75050228  0.99312547     0.19200
H3535       H  0.61410029  0.75023565  0.01863466     0.19100
H3536       H  0.57858384  0.73427568  0.97168007     0.15000
C3537       C  0.37903332  0.74958076  0.13050021     0.30400
C3538       C  0.37594053  0.75452737  0.14117058    -0.35900
C3539       C  0.36495500  0.75183255  0.14531992     0.16400
C3540       C  0.35761581  0.74467255  0.13944217     0.22200
C3541       C  0.36067616  0.73979188  0.12878413    -0.34000
C3542       C  0.37155427  0.74260410  0.12456510     0.16300
O3543       O  0.38886464  0.75085854  0.12499447    -0.26000
C3544       C  0.38757137  0.74473587  0.11534287     0.06100
C3545       C  0.37695208  0.73945639  0.11461595    -0.30900
O3546       O  0.34779339  0.74326679  0.14484986    -0.22700
C3547       C  0.34870428  0.74967551  0.15434284    -0.02700
C3548       C  0.35926879  0.75521244  0.15507823    -0.17200
H3549       H  0.38166407  0.76011083  0.14587232     0.20800
H3550       H  0.35493563  0.73423893  0.12406878     0.19200
H3551       H  0.37375494  0.73393446  0.10783450     0.19100
H3552       H  0.36238701  0.76084232  0.16180127     0.15000
C3553       C  0.41191140  0.73151114  0.00768825     0.30400
C3554       C  0.40509586  0.73322287  0.99778178    -0.35900
C3555       C  0.41064592  0.73192786  0.98701128     0.16400
C3556       C  0.42206529  0.72911678  0.98616506     0.22200
C3557       C  0.42880825  0.72741660  0.99597031    -0.34000
C3558       C  0.42331111  0.72873248  0.00662200     0.16300
O3559       O  0.40868087  0.73237264  0.01865924    -0.26000
C3560       C  0.41818794  0.73010271  0.02458861     0.06100
C3561       C  0.42750386  0.72779764  0.01748364    -0.30900
O3562       O  0.42567374  0.72850341  0.97541894    -0.22700
C3563       C  0.41652011  0.73095995  0.96912929    -0.02700
C3564       C  0.40685125  0.73316496  0.97585791    -0.17200
H3565       H  0.39615269  0.73548236  0.99842114     0.20800
H3566       H  0.43778684  0.72529577  0.99532955     0.19200
H3567       H  0.43618103  0.72576133  0.01992668     0.19100
H3568       H  0.39837318  0.73548186  0.97297559     0.15000
C3569       C  0.49639539  0.73318088  0.08553435     0.30400
C3570       C  0.50631480  0.73031238  0.07946905    -0.35900
C3571       C  0.51654659  0.73416411  0.08423487     0.16400
C3572       C  0.51714310  0.74039095  0.09435786     0.22200
C3573       C  0.50710640  0.74321881  0.10054540    -0.34000
C3574       C  0.49673643  0.73937836  0.09570061     0.16300
O3575       O  0.48596513  0.73086324  0.08216580    -0.26000
C3576       C  0.47935615  0.73556547  0.09022218     0.06100
C3577       C  0.48556070  0.74097810  0.09894736    -0.30900
O3578       O  0.52777281  0.74346048  0.09684533    -0.22700
C3579       C  0.53392656  0.73913262  0.08812107    -0.02700
C3580       C  0.52732009  0.73325699  0.08011438    -0.17200
H3581       H  0.50604640  0.72562249  0.07139052     0.20800
H3582       H  0.50733879  0.74826002  0.10840266     0.19200
H3583       H  0.48232523  0.74568422  0.10633260     0.19100
H3584       H  0.53001648  0.72907669  0.07220585     0.15000
C3585       C  0.62815483  0.13322518  0.74458597     0.30400
C3586       C  0.63049584  0.14483241  0.74708199    -0.35900
C3587       C  0.64180366  0.14844522  0.74528448     0.16400
C3588       C  0.65020211  0.14118866  0.74115330     0.22200
C3589       C  0.64787799  0.12957544  0.73869883    -0.34000
C3590       C  0.63660956  0.12592363  0.74064051     0.16300
O3591       O  0.61820769  0.12798830  0.74575504    -0.26000
C3592       C  0.62032801  0.11715393  0.74261407     0.06100
C3593       C  0.63164974  0.11538320  0.73935643    -0.30900
O3594       O  0.66015745  0.14639475  0.74003218    -0.22700
C3595       C  0.65818816  0.15712635  0.74361690    -0.02700
C3596       C  0.64687893  0.15887186  0.74698746    -0.17200
H3597       H  0.62397059  0.15062618  0.75028702     0.20800
H3598       H  0.65442440  0.12376658  0.73556412     0.19200
H3599       H  0.63564085  0.10748980  0.73643174     0.19100
H3600       H  0.64291773  0.16670848  0.75010089     0.15000
C3601       C  0.35391833  0.14126277  0.74315202     0.30400
C3602       C  0.35637228  0.12958645  0.74106153    -0.35900
C3603       C  0.36725565  0.12573478  0.74441864     0.16400
C3604       C  0.37525759  0.13289100  0.74936101     0.22200
C3605       C  0.37277092  0.14454604  0.75154145    -0.34000
C3606       C  0.36184164  0.14835821  0.74828877     0.16300
O3607       O  0.34426911  0.14667869  0.74072609    -0.26000
C3608       C  0.34595532  0.15740593  0.74446001     0.06100
C3609       C  0.35679832  0.15889987  0.74922011    -0.30900
O3610       O  0.38499818  0.12753340  0.75152076    -0.22700
C3611       C  0.38317276  0.11675183  0.74802747    -0.02700
C3612       C  0.37225742  0.11514763  0.74358261    -0.17200
H3613       H  0.35022640  0.12389569  0.73709134     0.20800
H3614       H  0.37892717  0.15025086  0.75547877     0.19200
H3615       H  0.36052789  0.16664221  0.75276563     0.19100
H3616       H  0.36861828  0.10736515  0.74002498     0.15000
C3617       C  0.51216625  0.09277289  0.74459936     0.30400
C3618       C  0.50230737  0.09901034  0.74785749    -0.35900
C3619       C  0.49176137  0.09337028  0.74620159     0.16400
C3620       C  0.49109065  0.08237933  0.74171814     0.22200
C3621       C  0.50083342  0.07620100  0.73854209    -0.34000
C3622       C  0.51123859  0.08181078  0.74012652     0.16300
O3623       O  0.52295123  0.09622777  0.74521962    -0.26000
C3624       C  0.52887779  0.08729461  0.74106138     0.06100
C3625       C  0.52195012  0.07815980  0.73777793    -0.30900
O3626       O  0.48055224  0.07871932  0.74064568    -0.22700
C3627       C  0.47420267  0.08741382  0.74444445    -0.02700
C3628       C  0.48069190  0.09681483  0.74807516    -0.17200
H3629       H  0.50280930  0.10764520  0.75133244     0.20800
H3630       H  0.50032378  0.06760353  0.73496127     0.19200
H3631       H  0.52439845  0.06992464  0.73416174     0.19100
H3632       H  0.47770571  0.10497454  0.75144374     0.15000
C3633       C  0.58853445  0.98719901  0.73086196     0.30400
C3634       C  0.58182341  0.99704898  0.72963712    -0.35900
C3635       C  0.58744560  0.00753925  0.73089354     0.16400
C3636       C  0.59893144  0.00845828  0.73326375     0.22200
C3637       C  0.60574883  0.99847051  0.73447999    -0.34000
C3638       C  0.60006769  0.98781779  0.73316794     0.16300
O3639       O  0.58480025  0.97659572  0.73001696    -0.26000
C3640       C  0.59397221  0.97012023  0.73175658     0.06100
C3641       C  0.60380643  0.97659870  0.73377991    -0.30900
O3642       O  0.60219526  0.01936596  0.73426297    -0.22700
C3643       C  0.59260542  0.02534506  0.73245536    -0.02700
C3644       C  0.58324581  0.01835501  0.73030066    -0.17200
H3645       H  0.57277387  0.99655698  0.72784814     0.20800
H3646       H  0.61478016  0.99896181  0.73634862     0.19200
H3647       H  0.61236101  0.97351846  0.73547795     0.19100
H3648       H  0.57449032  0.02081919  0.72866920     0.15000
C3649       C  0.35992869  0.84772770  0.74829398     0.30400
C3650       C  0.37141556  0.84992545  0.75093066    -0.35900
C3651       C  0.37540045  0.86106661  0.74844060     0.16400
C3652       C  0.36850156  0.86956070  0.74386722     0.22200
C3653       C  0.35699274  0.86734857  0.74118733    -0.34000
C3654       C  0.35305913  0.85611387  0.74348780     0.16300
O3655       O  0.35457107  0.83782532  0.74970482    -0.26000
C3656       C  0.34412103  0.83975604  0.74561822     0.06100
C3657       C  0.34269738  0.85103617  0.74162783    -0.30900
O3658       O  0.37402181  0.87937544  0.74227173    -0.22700
C3659       C  0.38463525  0.87710204  0.74574872    -0.02700
C3660       C  0.38597650  0.86582101  0.74964492    -0.17200
H3661       H  0.37691238  0.84334414  0.75454053     0.20800
H3662       H  0.35153288  0.87388355  0.73743544     0.19200
H3663       H  0.33514080  0.85494326  0.73794641     0.19100
H3664       H  0.39361579  0.86173775  0.75294292     0.15000
C3665       C  0.40665552  0.98577172  0.74104647     0.30400
C3666       C  0.40082969  0.99561387  0.74518966    -0.35900
C3667       C  0.40537372  0.00641153  0.74187990     0.16400
C3668       C  0.41498359  0.00734980  0.73501662     0.22200
C3669       C  0.42071810  0.99760299  0.73086705    -0.34000
C3670       C  0.41622165  0.98692250  0.73416504     0.16300
O3671       O  0.40426182  0.97480679  0.74331246    -0.26000
C3672       C  0.41248011  0.96896450  0.73782933     0.06100
C3673       C  0.42009711  0.97611376  0.73201262    -0.30900
O3674       O  0.41816308  0.01810101  0.73334849    -0.22700
C3675       C  0.41049631  0.02431756  0.73910803    -0.02700
C3676       C  0.40225636  0.01751241  0.74458373    -0.17200
H3677       H  0.39341686  0.99490900  0.75075360     0.20800
H3678       H  0.42834473  0.99830611  0.72560655     0.19200
H3679       H  0.42757425  0.97370096  0.72705906     0.19100
H3680       H  0.39528646  0.02030231  0.75006836     0.15000
C3681       C  0.51414833  0.89917337  0.73441709     0.30400
C3682       C  0.50455089  0.89300823  0.73843915    -0.35900
C3683       C  0.49382396  0.89809855  0.73630947     0.16400
C3684       C  0.49271719  0.90849573  0.73059484     0.22200
C3685       C  0.50221634  0.91451174  0.72642684    -0.34000
C3686       C  0.51284159  0.90948545  0.72860363     0.16300
O3687       O  0.52503077  0.89656566  0.73615098    -0.26000
C3688       C  0.53066356  0.90538212  0.73139742     0.06100
C3689       C  0.52346855  0.91358648  0.72652662    -0.30900
O3690       O  0.48210719  0.91215009  0.73019624    -0.22700
C3691       C  0.47618417  0.90400190  0.73563197    -0.02700
C3692       C  0.48300248  0.89496461  0.73959039    -0.17200
H3693       H  0.50540109  0.88503198  0.74323142     0.20800
H3694       H  0.50139840  0.92278150  0.72215316     0.19200
H3695       H  0.52571062  0.92165690  0.72239894     0.19100
H3696       H  0.48043695  0.88748670  0.74456542     0.15000
C3697       C  0.75033081  0.85628906  0.64050533     0.30400
C3698       C  0.74811952  0.86795444  0.63814267    -0.35900
C3699       C  0.75098914  0.87181494  0.62700218     0.16400
C3700       C  0.75555668  0.86465885  0.61867252     0.22200
C3701       C  0.75783357  0.85298662  0.62105599    -0.34000
C3702       C  0.75511171  0.84916301  0.63227838     0.16300
O3703       O  0.74851421  0.85097068  0.65043817    -0.26000
C3704       C  0.75229999  0.84028496  0.64867091     0.06100
C3705       C  0.75649323  0.83867273  0.63747466    -0.30900
O3706       O  0.75749550  0.87009465  0.60881014    -0.22700
C3707       C  0.75422876  0.88089778  0.61090165    -0.02700
C3708       C  0.75014534  0.88247108  0.62209478    -0.17200
H3709       H  0.74451846  0.87365350  0.64458559     0.20800
H3710       H  0.76156145  0.84732153  0.61465455     0.19200
H3711       H  0.76003770  0.83092692  0.63370096     0.19100
H3712       H  0.74694876  0.89030086  0.62601135     0.15000
C3713       C  0.70798336  0.82967940  0.71261011     0.30400
C3714       C  0.71172553  0.83521019  0.70242270    -0.35900
C3715       C  0.72119910  0.83022584  0.69680449     0.16400
C3716       C  0.72660592  0.82051279  0.70094595     0.22200
C3717       C  0.72290326  0.81503871  0.71112928    -0.34000
C3718       C  0.71345424  0.81999590  0.71672097     0.16300
O3719       O  0.69906305  0.83256097  0.71902840    -0.26000
C3720       C  0.69877583  0.82461077  0.72740818     0.06100
C3721       C  0.70763681  0.81661143  0.72636230    -0.30900
O3722       O  0.73518355  0.81720483  0.69430821    -0.22700
C3723       C  0.73539521  0.82487655  0.68570504    -0.02700
C3724       C  0.72681154  0.83320658  0.68685585    -0.17200
H3725       H  0.70746511  0.84277431  0.69903572     0.20800
H3726       H  0.72703299  0.80735296  0.71440195     0.19200
H3727       H  0.70946642  0.80915945  0.73167125     0.19100
H3728       H  0.72487551  0.84040938  0.68124112     0.15000
C3729       C  0.65338745  0.85578520  0.73943638     0.30400
C3730       C  0.65056547  0.86701711  0.73590597    -0.35900
C3731       C  0.63913663  0.87032171  0.73746789     0.16400
C3732       C  0.63098131  0.86305930  0.74207102     0.22200
C3733       C  0.63383092  0.85184541  0.74570310    -0.34000
C3734       C  0.64530635  0.84857923  0.74424556     0.16300
O3735       O  0.66353940  0.85089120  0.73864360    -0.26000
C3736       C  0.66203194  0.84040852  0.74312123     0.06100
C3737       C  0.65081174  0.83852182  0.74676050    -0.30900
O3738       O  0.62077516  0.86791513  0.74257260    -0.22700
C3739       C  0.62245496  0.87846702  0.73832685    -0.02700
C3740       C  0.63372692  0.88043189  0.73504417    -0.17200
H3741       H  0.65684041  0.87277481  0.73218454     0.20800
H3742       H  0.62754925  0.84607316  0.74939430     0.19200
H3743       H  0.64715243  0.83079903  0.75048647     0.19100
H3744       H  0.63738888  0.88816088  0.73133215     0.15000
C3745       C  0.67534668  0.77868869  0.78952344     0.30400
C3746       C  0.66987755  0.78876058  0.78568728    -0.35900
C3747       C  0.67463009  0.79412493  0.77590884     0.16400
C3748       C  0.68410276  0.78989015  0.77024714     0.22200
C3749       C  0.68955534  0.77975788  0.77405690    -0.34000
C3750       C  0.68480525  0.77439068  0.78387767     0.16300
O3751       O  0.67249363  0.77250644  0.79867233    -0.26000
C3752       C  0.68019850  0.76404785  0.79899699     0.06100
C3753       C  0.68808142  0.76481606  0.78991615    -0.30900
O3754       O  0.68718831  0.79643657  0.76140004    -0.22700
C3755       C  0.67957972  0.80501687  0.76134040    -0.02700
C3756       C  0.67156407  0.80395020  0.77024992    -0.17200
H3757       H  0.66249175  0.79225204  0.79010868     0.20800
H3758       H  0.69704989  0.77636669  0.76974470     0.19200
H3759       H  0.69531429  0.75931927  0.78806057     0.19100
H3760       H  0.66453522  0.80958589  0.77244394     0.15000
C3761       C  0.64035446  0.75008810  0.86707142     0.30400
C3762       C  0.65167812  0.74696972  0.86450853    -0.35900
C3763       C  0.65526728  0.74872749  0.85303383     0.16400
C3764       C  0.64829334  0.75347635  0.84470025     0.22200
C3765       C  0.63697633  0.75665423  0.84727630    -0.34000
C3766       C  0.63330066  0.75465644  0.85869620     0.16300
O3767       O  0.63507766  0.74862813  0.87708074    -0.26000
C3768       C  0.62444762  0.75218851  0.87509436     0.06100
C3769       C  0.62285455  0.75604671  0.86379189    -0.30900
O3770       O  0.65332502  0.75408597  0.83446811    -0.22700
C3771       C  0.66363492  0.74951657  0.83619535    -0.02700
C3772       C  0.66529714  0.74607052  0.84763420    -0.17200
H3773       H  0.65720597  0.74313211  0.87093684     0.20800
H3774       H  0.63133605  0.76014182  0.84075288     0.19200
H3775       H  0.61509628  0.75923909  0.85986361     0.19100
H3776       H  0.67278526  0.74214751  0.85143548     0.15000
C3777       C  0.72252377  0.69999989  0.82227398     0.30400
C3778       C  0.71241813  0.70386342  0.82759603    -0.35900
C3779       C  0.70753251  0.71393585  0.82297455     0.16400
C3780       C  0.71226217  0.71980610  0.81376434     0.22200
C3781       C  0.72237593  0.71595389  0.80845875    -0.34000
C3782       C  0.72724533  0.70587262  0.81306128     0.16300
O3783       O  0.72849391  0.69077357  0.82515968    -0.26000
C3784       C  0.73719141  0.69064728  0.81768197     0.06100
C3785       C  0.73680889  0.69991332  0.80995235    -0.30900
O3786       O  0.70627580  0.72900682  0.81083509    -0.22700
C3787       C  0.69754813  0.72913257  0.81827448    -0.02700
C3788       C  0.69792854  0.71987360  0.82602541    -0.17200
H3789       H  0.70861796  0.69932043  0.83483049     0.20800
H3790       H  0.72617297  0.72049028  0.80121845     0.19200
H3791       H  0.74270166  0.70208254  0.80307006     0.19100
H3792       H  0.69202449  0.71771024  0.83289881     0.15000
C3793       C  0.75675041  0.64090680  0.84629080     0.30400
C3794       C  0.75856028  0.62929845  0.84921359    -0.35900
C3795       C  0.75583888  0.62615291  0.86062078     0.16400
C3796       C  0.75181655  0.63391354  0.86868963     0.22200
C3797       C  0.75000178  0.64553374  0.86576075    -0.34000
C3798       C  0.75253446  0.64863874  0.85428186     0.16300
O3799       O  0.75831807  0.64560410  0.83599891    -0.26000
C3800       C  0.75492368  0.65648343  0.83733160     0.06100
C3801       C  0.75127829  0.65885291  0.84857362    -0.30900
O3802       O  0.74985648  0.62907093  0.87886126    -0.22700
C3803       C  0.75254904  0.61803520  0.87723690    -0.02700
C3804       C  0.75629566  0.61573529  0.86603964    -0.17200
H3805       H  0.76168352  0.62310950  0.84297570     0.20800
H3806       H  0.74667560  0.65167783  0.87193974     0.19200
H3807       H  0.74808259  0.66689709  0.85202728     0.19100
H3808       H  0.75905904  0.60759450  0.86244108     0.15000
C3809       C  0.80055338  0.66812120  0.77472491     0.30400
C3810       C  0.79668106  0.66250719  0.78479176    -0.35900
C3811       C  0.78636679  0.66657577  0.78950921     0.16400
C3812       C  0.78027269  0.67550364  0.78463293     0.22200
C3813       C  0.78409046  0.68103921  0.77452241    -0.34000
C3814       C  0.79442428  0.67702244  0.76984883     0.16300
O3815       O  0.81015502  0.66600760  0.76909796    -0.26000
C3816       C  0.81024927  0.67367172  0.76046676     0.06100
C3817       C  0.80058500  0.68073185  0.76054295    -0.30900
O3818       O  0.77112864  0.67825039  0.79072298    -0.22700
C3819       C  0.77127232  0.67099986  0.79968887    -0.02700
C3820       C  0.78060640  0.66348678  0.79931144    -0.17200
H3821       H  0.80148812  0.65560630  0.78879534     0.20800
H3822       H  0.77944731  0.68815471  0.77070337     0.19200
H3823       H  0.79836414  0.68767823  0.75471804     0.19100
H3824       H  0.78307124  0.65691652  0.80546657     0.15000
C3825       C  0.85465459  0.64154493  0.74699908     0.30400
C3826       C  0.85670723  0.62971010  0.74858728    -0.35900
C3827       C  0.86815358  0.62616108  0.74786412     0.16400
C3828       C  0.87700507  0.63372811  0.74581536     0.22200
C3829       C  0.87494014  0.64556186  0.74414596    -0.34000
C3830       C  0.86346968  0.64909810  0.74474725     0.16300
O3831       O  0.84461478  0.64672529  0.74737573    -0.26000
C3832       C  0.84696840  0.65775090  0.74516927     0.06100
C3833       C  0.85858926  0.65971503  0.74345370    -0.30900
O3834       O  0.88706462  0.62854753  0.74568644    -0.22700
C3835       C  0.88462400  0.61749442  0.74763310    -0.02700
C3836       C  0.87297335  0.61552098  0.74901733    -0.17200
H3837       H  0.84985840  0.62368948  0.75027983     0.20800
H3838       H  0.88179248  0.65158735  0.74248568     0.19200
H3839       H  0.86283016  0.66780926  0.74167873     0.19100
H3840       H  0.86867950  0.60744654  0.75074375     0.15000
C3841       C  0.78374188  0.79532943  0.66261498     0.30400
C3842       C  0.79367356  0.79120090  0.65713469    -0.35900
C3843       C  0.79888787  0.78150435  0.66221385     0.16400
C3844       C  0.79461853  0.77619766  0.67197894     0.22200
C3845       C  0.78463449  0.78026282  0.67739142    -0.34000
C3846       C  0.77945868  0.78999093  0.67235463     0.16300
O3847       O  0.77767060  0.80445131  0.65954151    -0.26000
C3848       C  0.76932545  0.80503694  0.66741579     0.06100
C3849       C  0.77007666  0.79617563  0.67559858    -0.30900
O3850       O  0.80111792  0.76757380  0.67554810    -0.22700
C3851       C  0.80974625  0.76727103  0.66798687    -0.02700
C3852       C  0.80870309  0.77577889  0.65945179    -0.17200
H3853       H  0.79721138  0.79538476  0.64955275     0.20800
H3854       H  0.78125379  0.77625274  0.68513772     0.19200
H3855       H  0.76461220  0.79446057  0.68295186     0.19100
H3856       H  0.81443758  0.77777934  0.65238717     0.15000
C3857       C  0.83444419  0.72034079  0.69922970     0.30400
C3858       C  0.84010464  0.71041672  0.70323427    -0.35900
C3859       C  0.83524527  0.70487969  0.71288575     0.16400
C3860       C  0.82547967  0.70880919  0.71824656     0.22200
C3861       C  0.81980873  0.71874936  0.71424097    -0.34000
C3862       C  0.82468002  0.72429975  0.70457677     0.16300
O3863       O  0.83738829  0.72668170  0.69019505    -0.26000
C3864       C  0.82941266  0.73488566  0.68963076     0.06100
C3865       C  0.82129147  0.73380038  0.69846611    -0.30900
O3866       O  0.82238843  0.70222751  0.72707039    -0.22700
C3867       C  0.83029020  0.69392495  0.72744787    -0.02700
C3868       C  0.83849868  0.69520125  0.71874148    -0.17200
H3869       H  0.84774015  0.70718496  0.69905811     0.20800
H3870       H  0.81209133  0.72189521  0.71832800     0.19200
H3871       H  0.81385123  0.73906934  0.70013271     0.19100
H3872       H  0.84578731  0.68980046  0.71683442     0.15000
C3873       C  0.85536258  0.75299863  0.63748113     0.30400
C3874       C  0.85772156  0.75451704  0.62564708    -0.35900
C3875       C  0.86922371  0.75356881  0.62231124     0.16400
C3876       C  0.87786092  0.75137915  0.63009047     0.22200
C3877       C  0.87548773  0.74976783  0.64193754    -0.34000
C3878       C  0.86394345  0.75058923  0.64525898     0.16300
O3879       O  0.84521651  0.75363750  0.64245259    -0.26000
C3880       C  0.84722335  0.75145985  0.65358731     0.06100
C3881       C  0.85876149  0.74946271  0.65582177    -0.30900
O3882       O  0.88801725  0.75094735  0.62506604    -0.22700
C3883       C  0.88585598  0.75281613  0.61389515    -0.02700
C3884       C  0.87428649  0.75448335  0.61170183    -0.17200
H3885       H  0.85103882  0.75631483  0.61945937     0.20800
H3886       H  0.88216898  0.74797383  0.64812600     0.19200
H3887       H  0.86276895  0.74766968  0.66405149     0.19100
H3888       H  0.87019434  0.75615362  0.60348892     0.15000
loop_ 
_geom_bond_atom_site_label_1 
_geom_bond_atom_site_label_2 
_geom_bond_distance 
_geom_bond_site_symmetry_2 
_ccdc_geom_bond_type 
C1            C2   1.406       .  A
C1            C6   1.407       .  A
C1         C3880   1.490       .  S
C2            C3   1.410       .  A
C2            H7   1.081       .  S
C3            C4   1.411       .  A
C3         C3851   1.499       .  S
C4            C5   1.414       .  A
C4            H8   1.081       .  S
C5            C6   1.411       .  A
C5         C3864   1.498       .  S
C6            H9   1.083       .  S
C10          C11   1.404       .  A
C10          C15   1.407       .  A
C10        C3832   1.486       .  S
C11          C12   1.407       .  A
C11          H16   1.084       .  S
C12          C13   1.412       .  A
C12        C3816   1.494       .  S
C13          C14   1.410       .  A
C13          H17   1.081       .  S
C14          C15   1.412       .  A
C14        C3867   1.498       .  S
C15          H18   1.081       .  S
C19          C20   1.406       .  A
C19          C24   1.405       .  A
C19        C3800   1.484       .  S
C20          C21   1.406       .  A
C20          H25   1.083       .  S
C21          C22   1.410       .  A
C21        C3784   1.493       .  S
C22          C23   1.409       .  A
C22          H26   1.081       .  S
C23          C24   1.409       .  A
C23        C3819   1.493       .  S
C24          H27   1.081       .  S
C28          C29   1.409       .  A
C28          C33   1.404       .  A
C28        C3771   1.489       .  S
C29          C30   1.411       .  A
C29          H34   1.080       .  S
C30          C31   1.409       .  A
C30        C3787   1.495       .  S
C31          C32   1.410       .  A
C31          H35   1.081       .  S
C32          C33   1.408       .  A
C32        C3752   1.494       .  S
C33          H36   1.083       .  S
C37          C38   1.406       .  A
C37          C42   1.406       .  A
C37        C3736   1.488       .  S
C38          C39   1.409       .  A
C38          H43   1.079       .  S
C39          C40   1.408       .  A
C39        C3755   1.495       .  S
C40          C41   1.413       .  A
C40          H44   1.080       .  S
C41          C42   1.408       .  A
C41        C3720   1.497       .  S
C42          H45   1.083       .  S
C46          C47   1.409       .  A
C46          C51   1.407       .  A
C46        C3704   1.487       .  S
C47          C48   1.408       .  A
C47          H52   1.083       .  S
C48          C49   1.412       .  A
C48        C3848   1.498       .  S
C49          C50   1.410       .  A
C49          H53   1.080       .  S
C50          C51   1.408       .  A
C50        C3723   1.497       .  S
C51          H54   1.081       .  S
N55          N56   1.322       .  A
N55          C59   1.355       .  A
N55         Cu63   2.105       .  S
N56          C57   1.339       .  A
N56         Cu62   2.056       .  S
C57          C58   1.376       .  A
C57          H60   1.082       .  S
C58          C59   1.393       .  A
C58        C3691   1.475       .  S
C59          H61   1.082       .  S
Cu62         N65   2.056       .  S
Cu63         N73   2.109       .  S
Cu64         N66   2.099       .  S
Cu64         N72   2.102       .  S
N65          N66   1.319       .  A
N65          C69   1.340       .  A
N66          C67   1.355       .  A
C67          C68   1.393       .  A
C67          H70   1.082       .  S
C68          C69   1.382       .  A
C68        C3672   1.483       .  S
C69          H71   1.082       .  S
N72          N73   1.328       .  A
N72          C76   1.348       .  A
N73          C74   1.351       .  A
C74          C75   1.388       .  A
C74          H77   1.082       .  S
C75          C76   1.382       .  A
C75        C3659   1.482       .  S
C76          H78   1.082       .  S
N79          N80   1.319       .  A
N79          C83   1.354       .  A
N79         Cu87   2.088       .  S
N80          C81   1.337       .  A
N80         Cu86   2.053       .  S
C81          C82   1.378       .  A
C81          H84   1.082       .  S
C82          C83   1.391       .  A
C82        C3640   1.474       .  S
C83          H85   1.081       .  S
Cu86         N89   2.054       .  S
Cu87         N97   2.092       .  S
Cu88         N90   2.098       .  S
Cu88         N96   2.102       .  S
N89          N90   1.320       .  A
N89          C93   1.338       .  A
N90          C91   1.354       .  A
C91          C92   1.391       .  A
C91          H94   1.082       .  S
C92          C93   1.380       .  A
C92        C3688   1.478       .  S
C93          H95   1.081       .  S
N96          N97   1.328       .  A
N96         C100   1.350       .  A
N97          C98   1.345       .  A
C98          C99   1.382       .  A
C98         H101   1.082       .  S
C99         C100   1.385       .  A
C99        C3739   1.478       .  S
C100        H102   1.082       .  S
N103        N104   1.321       .  A
N103        C107   1.354       .  A
N103       Cu111   2.095       .  S
N104        C105   1.339       .  A
N104       Cu110   2.062       .  S
C105        C106   1.379       .  A
C105        H108   1.082       .  S
C106        C107   1.391       .  A
C106       C3627   1.475       .  S
C107        H109   1.082       .  S
Cu110       N113   2.061       .  S
Cu111       N121   2.098       .  S
Cu112       N114   2.106       .  S
Cu112       N120   2.108       .  S
N113        N114   1.320       .  A
N113        C117   1.341       .  A
N114        C115   1.356       .  A
C115        C116   1.394       .  A
C115        H118   1.081       .  S
C116        C117   1.380       .  A
C116       C3675   1.482       .  S
C117        H119   1.082       .  S
N120        N121   1.328       .  A
N120        C124   1.348       .  A
N121        C122   1.350       .  A
C122        C123   1.384       .  A
C122        H125   1.082       .  S
C123        C124   1.386       .  A
C123       C3611   1.482       .  S
C124        H126   1.082       .  S
N127        N128   1.318       .  A
N127        C131   1.354       .  A
N127       Cu135   2.091       .  S
N128        C129   1.336       .  A
N128       Cu134   2.048       .  S
C129        C130   1.381       .  A
C129        H132   1.081       .  S
C130        C131   1.392       .  A
C130       C3643   1.479       .  S
C131        H133   1.082       .  S
Cu134       N137   2.048       .  S
Cu135       N145   2.096       .  S
Cu136       N138   2.104       .  S
Cu136       N144   2.109       .  S
N137        N138   1.319       .  A
N137        C141   1.336       .  A
N138        C139   1.356       .  A
C139        C140   1.395       .  A
C139        H142   1.082       .  S
C140        C141   1.380       .  A
C140       C3624   1.482       .  S
C141        H143   1.082       .  S
N144        N145   1.329       .  A
N144        C148   1.350       .  A
N145        C146   1.347       .  A
C146        C147   1.383       .  A
C146        H149   1.082       .  S
C147        C148   1.385       .  A
C147       C3592   1.479       .  S
C148        H150   1.082       .  S
N151        N152   1.320       .  A
N151        C155   1.354       .  A
N151       Cu159   2.093       .  S
N152        C153   1.338       .  A
N152       Cu158   2.054       .  S
C153        C154   1.378       .  A
C153        H156   1.082       .  S
C154        C155   1.391       .  A
C154       C3576   1.474       .  S
C155        H157   1.082       .  S
Cu158       N161   2.054       .  S
Cu159       N169   2.096       .  S
Cu160       N162   2.097       .  S
Cu160       N168   2.101       .  S
N161        N162   1.319       .  A
N161        C165   1.339       .  A
N162        C163   1.354       .  A
C163        C164   1.392       .  A
C163        H166   1.081       .  S
C164        C165   1.382       .  A
C164       C3560   1.481       .  S
C165        H167   1.081       .  S
N168        N169   1.328       .  A
N168        C172   1.347       .  A
N169        C170   1.348       .  A
C170        C171   1.382       .  A
C170        H173   1.082       .  S
C171        C172   1.385       .  A
C171       C3544   1.477       .  S
C172        H174   1.082       .  S
N175        N176   1.320       .  A
N175        C179   1.354       .  A
N175       Cu183   2.093       .  S
N176        C177   1.338       .  A
N176       Cu182   2.057       .  S
C177        C178   1.378       .  A
C177        H180   1.082       .  S
C178        C179   1.391       .  A
C178       C3528   1.475       .  S
C179        H181   1.081       .  S
Cu182       N185   2.057       .  S
Cu183       N193   2.097       .  S
Cu184       N186   2.104       .  S
Cu184       N192   2.108       .  S
N185        N186   1.320       .  A
N185        C189   1.338       .  A
N186        C187   1.356       .  A
C187        C188   1.393       .  A
C187        H190   1.082       .  S
C188        C189   1.381       .  A
C188       C3579   1.482       .  S
C189        H191   1.082       .  S
N192        N193   1.328       .  A
N192        C196   1.349       .  A
N193        C194   1.348       .  A
C194        C195   1.383       .  A
C194        H197   1.082       .  S
C195        C196   1.386       .  A
C195       C3512   1.481       .  S
C196        H198   1.082       .  S
N199        N200   1.319       .  A
N199        C203   1.354       .  A
N199       Cu207   2.092       .  S
N200        C201   1.338       .  A
N200       Cu206   2.050       .  S
C201        C202   1.382       .  A
C201        H204   1.081       .  S
C202        C203   1.391       .  A
C202       C3531   1.479       .  S
C203        H205   1.081       .  S
Cu206       N209   2.050       .  S
Cu207       N217   2.096       .  S
Cu208       N210   2.102       .  S
Cu208       N216   2.106       .  S
N209        N210   1.320       .  A
N209        C213   1.336       .  A
N210        C211   1.356       .  A
C211        C212   1.393       .  A
C211        H214   1.082       .  S
C212        C213   1.380       .  A
C212       C3499   1.480       .  S
C213        H215   1.082       .  S
N216        N217   1.328       .  A
N216        C220   1.350       .  A
N217        C218   1.347       .  A
C218        C219   1.382       .  A
C218        H221   1.082       .  S
C219        C220   1.387       .  A
C219       C3768   1.480       .  S
C220        H222   1.082       .  S
N223        N224   1.320       .  A
N223        C227   1.353       .  A
N223       Cu231   2.092       .  S
N224        C225   1.340       .  A
N224       Cu230   2.059       .  S
C225        C226   1.379       .  A
C225        H228   1.082       .  S
C226        C227   1.391       .  A
C226       C3563   1.475       .  S
C227        H229   1.081       .  S
Cu230       N233   2.059       .  S
Cu231       N241   2.095       .  S
Cu232       N234   2.091       .  S
Cu232       N240   2.094       .  S
N233        N234   1.321       .  A
N233        C237   1.339       .  A
N234        C235   1.353       .  A
C235        C236   1.389       .  A
C235        H238   1.082       .  S
C236        C237   1.378       .  A
C236       C3496   1.473       .  S
C237        H239   1.082       .  S
N240        N241   1.326       .  A
N240        C244   1.349       .  A
N241        C242   1.347       .  A
C242        C243   1.385       .  A
C242        H245   1.082       .  S
C243        C244   1.384       .  A
C243       C3480   1.479       .  S
C244        H246   1.082       .  S
C247        C248   1.409       .  A
C247        C252   1.406       .  A
C247       C3656   1.488       .  S
C248        C249   1.410       .  A
C248        H253   1.083       .  S
C249        C250   1.409       .  A
C249       C3448   1.495       .  S
C250        C251   1.409       .  A
C250        H254   1.077       .  S
C251        C252   1.405       .  A
C251       C3464   1.493       .  S
C252        H255   1.084       .  S
C256        C257   1.408       .  A
C256        C261   1.407       .  A
C256       C3483   1.487       .  S
C257        C258   1.409       .  A
C257        H262   1.081       .  S
C258        C259   1.407       .  A
C258       C3467   1.493       .  S
C259        C260   1.406       .  A
C259        H263   1.083       .  S
C260        C261   1.410       .  A
C260       C3432   1.493       .  S
C261        H264   1.081       .  S
C265        C266   1.404       .  A
C265        C270   1.404       .  A
C265       C3416   1.484       .  S
C266        C267   1.405       .  A
C266        H271   1.083       .  S
C267        C268   1.411       .  A
C267       C3435   1.492       .  S
C268        C269   1.413       .  A
C268        H272   1.079       .  S
C269        C270   1.409       .  A
C269       C3400   1.493       .  S
C270        H273   1.084       .  S
C274        C275   1.407       .  A
C274        C279   1.407       .  A
C274       C3387   1.488       .  S
C275        C276   1.410       .  A
C275        H280   1.082       .  S
C276        C277   1.408       .  A
C276       C3368   1.493       .  S
C277        C278   1.407       .  A
C277        H281   1.083       .  S
C278        C279   1.409       .  A
C278       C3403   1.493       .  S
C279        H282   1.080       .  S
C283        C284   1.408       .  A
C283        C288   1.406       .  A
C283       C3355   1.487       .  S
C284        C285   1.408       .  A
C284        H289   1.083       .  S
C285        C286   1.409       .  A
C285       C3339   1.494       .  S
C286        C287   1.410       .  A
C286        H290   1.077       .  S
C287        C288   1.408       .  A
C287       C3371   1.494       .  S
C288        H291   1.084       .  S
C292        C293   1.401       .  A
C292        C297   1.402       .  A
C292       C3320   1.481       .  S
C293        C294   1.406       .  A
C293        H298   1.080       .  S
C294        C295   1.411       .  A
C294       C3451   1.494       .  S
C295        C296   1.412       .  A
C295        H299   1.083       .  S
C296        C297   1.410       .  A
C296       C3336   1.494       .  S
C297        H300   1.081       .  S
N301        N302   1.321       .  A
N301        C305   1.352       .  A
N301       Cu309   2.081       .  S
N302        C303   1.338       .  A
N302       Cu308   2.060       .  S
C303        C304   1.378       .  A
C303        H306   1.082       .  S
C304        C305   1.388       .  A
C304       C3288   1.470       .  S
C305        H307   1.082       .  S
Cu308       N311   2.060       .  S
Cu309       N319   2.084       .  S
Cu310       N312   2.078       .  S
Cu310       N318   2.081       .  S
N311        N312   1.319       .  A
N311        C315   1.339       .  A
N312        C313   1.351       .  A
C313        C314   1.388       .  A
C313        H316   1.082       .  S
C314        C315   1.382       .  A
C314       C3304   1.475       .  S
C315        H317   1.082       .  S
N318        N319   1.326       .  A
N318        C322   1.343       .  A
N319        C320   1.346       .  A
C320        C321   1.381       .  A
C320        H323   1.082       .  S
C321        C322   1.380       .  A
C321       C3272   1.469       .  S
C322        H324   1.082       .  S
N325        N326   1.321       .  A
N325        C329   1.355       .  A
N325       Cu333   2.098       .  S
N326        C327   1.337       .  A
N326       Cu332   2.057       .  S
C327        C328   1.380       .  A
C327        H330   1.081       .  S
C328        C329   1.393       .  A
C328       C3256   1.481       .  S
C329        H331   1.082       .  S
Cu332       N335   2.058       .  S
Cu333       N343   2.101       .  S
Cu334       N336   2.083       .  S
Cu334       N342   2.087       .  S
N335        N336   1.319       .  A
N335        C339   1.341       .  A
N336        C337   1.351       .  A
C337        C338   1.389       .  A
C337        H340   1.082       .  S
C338        C339   1.380       .  A
C338       C3307   1.473       .  S
C339        H341   1.082       .  S
N342        N343   1.327       .  A
N342        C346   1.345       .  A
N343        C344   1.349       .  A
C344        C345   1.384       .  A
C344        H347   1.082       .  S
C345        C346   1.382       .  A
C345       C3803   1.476       .  S
C346        H348   1.082       .  S
N349        N350   1.320       .  A
N349        C353   1.350       .  A
N349       Cu357   2.082       .  S
N350        C351   1.342       .  A
N350       Cu356   2.060       .  S
C351        C352   1.383       .  A
C351        H354   1.082       .  S
C352        C353   1.387       .  A
C352       C3243   1.474       .  S
C353        H355   1.082       .  S
Cu356       N359   2.060       .  S
Cu357       N367   2.085       .  S
Cu358       N360   2.081       .  S
Cu358       N366   2.084       .  S
N359        N360   1.321       .  A
N359        C363   1.338       .  A
N360        C361   1.352       .  A
C361        C362   1.388       .  A
C361        H364   1.082       .  S
C362        C363   1.381       .  A
C362       C3291   1.475       .  S
C363        H365   1.081       .  S
N366        N367   1.326       .  A
N366        C370   1.346       .  A
N367        C368   1.345       .  A
C368        C369   1.380       .  A
C368        H371   1.082       .  S
C369        C370   1.383       .  A
C369       C3224   1.470       .  S
C370        H372   1.082       .  S
N373        N374   1.320       .  A
N373        C377   1.353       .  A
N373       Cu381   2.092       .  S
N374        C375   1.339       .  A
N374       Cu380   2.058       .  S
C375        C376   1.379       .  A
C375        H378   1.082       .  S
C376        C377   1.391       .  A
C376       C3259   1.475       .  S
C377        H379   1.082       .  S
Cu380       N383   2.058       .  S
Cu381       N391   2.095       .  S
Cu382       N384   2.084       .  S
Cu382       N390   2.087       .  S
N383        N384   1.321       .  A
N383        C387   1.339       .  A
N384        C385   1.351       .  A
C385        C386   1.388       .  A
C385        H388   1.082       .  S
C386        C387   1.377       .  A
C386       C3240   1.470       .  S
C387        H389   1.082       .  S
N390        N391   1.327       .  A
N390        C394   1.347       .  A
N391        C392   1.346       .  A
C392        C393   1.384       .  A
C392        H395   1.082       .  S
C393        C394   1.382       .  A
C393       C3208   1.475       .  S
C394        H396   1.082       .  S
N397        N398   1.320       .  A
N397        C401   1.355       .  A
N397       Cu405   2.095       .  S
N398        C399   1.337       .  A
N398       Cu404   2.051       .  S
C399        C400   1.377       .  A
C399        H402   1.082       .  S
C400        C401   1.392       .  A
C400       C3179   1.473       .  S
C401        H403   1.082       .  S
Cu404       N407   2.051       .  S
Cu405       N415   2.099       .  S
Cu406       N408   2.085       .  S
Cu406       N414   2.089       .  S
N407        N408   1.319       .  A
N407        C411   1.338       .  A
N408        C409   1.353       .  A
C409        C410   1.391       .  A
C409        H412   1.081       .  S
C410        C411   1.378       .  A
C410       C3192   1.471       .  S
C411        H413   1.082       .  S
N414        N415   1.328       .  A
N414        C418   1.345       .  A
N415        C416   1.348       .  A
C416        C417   1.384       .  A
C416        H419   1.082       .  S
C417        C418   1.380       .  A
C417       C3160   1.473       .  S
C418        H420   1.082       .  S
N421        N422   1.320       .  A
N421        C425   1.355       .  A
N421       Cu429   2.099       .  S
N422        C423   1.339       .  A
N422       Cu428   2.054       .  S
C423        C424   1.378       .  A
C423        H426   1.082       .  S
C424        C425   1.392       .  A
C424       C3147   1.476       .  S
C425        H427   1.082       .  S
Cu428       N431   2.054       .  S
Cu429       N439   2.102       .  S
Cu430       N432   2.090       .  S
Cu430       N438   2.094       .  S
N431        N432   1.320       .  A
N431        C435   1.338       .  A
N432        C433   1.352       .  A
C433        C434   1.390       .  A
C433        H436   1.082       .  S
C434        C435   1.381       .  A
C434       C3195   1.476       .  S
C435        H437   1.081       .  S
N438        N439   1.327       .  A
N438        C442   1.349       .  A
N439        C440   1.347       .  A
C440        C441   1.385       .  A
C440        H443   1.081       .  S
C441        C442   1.383       .  A
C441       C3384   1.480       .  S
C442        H444   1.082       .  S
N445        N446   1.321       .  A
N445        C449   1.354       .  A
N445       Cu453   2.100       .  S
N446        C447   1.339       .  A
N446       Cu452   2.060       .  S
C447        C448   1.381       .  A
C447        H450   1.082       .  S
C448        C449   1.391       .  A
C448       C3144   1.480       .  S
C449        H451   1.082       .  S
Cu452       N455   2.060       .  S
Cu453       N463   2.103       .  S
Cu454       N456   2.087       .  S
Cu454       N462   2.090       .  S
N455        N456   1.320       .  A
N455        C459   1.340       .  A
N456        C457   1.353       .  A
C457        C458   1.389       .  A
C457        H460   1.081       .  S
C458        C459   1.379       .  A
C458       C3128   1.473       .  S
C459        H461   1.082       .  S
N462        N463   1.327       .  A
N462        C466   1.346       .  A
N463        C464   1.350       .  A
C464        C465   1.386       .  A
C464        H467   1.082       .  S
C465        C466   1.384       .  A
C465       C3835   1.480       .  S
C466        H468   1.082       .  S
N469        N470   1.319       .  A
N469        C473   1.354       .  A
N469       Cu477   2.093       .  S
N470        C471   1.338       .  A
N470       Cu476   2.053       .  S
C471        C472   1.381       .  A
C471        H474   1.082       .  S
C472        C473   1.392       .  A
C472       C3131   1.478       .  S
C473        H475   1.082       .  S
Cu476       N479   2.052       .  S
Cu477       N487   2.098       .  S
Cu478       N480   2.085       .  S
Cu478       N486   2.089       .  S
N479        N480   1.319       .  A
N479        C483   1.337       .  A
N480        C481   1.353       .  A
C481        C482   1.390       .  A
C481        H484   1.082       .  S
C482        C483   1.381       .  A
C482       C3176   1.476       .  S
C483        H485   1.082       .  S
N486        N487   1.328       .  A
N486        C490   1.346       .  A
N487        C488   1.348       .  A
C488        C489   1.383       .  A
C488        H491   1.082       .  S
C489        C490   1.382       .  A
C489       C3112   1.475       .  S
C490        H492   1.082       .  S
C493        C494   1.402       .  A
C493        C498   1.403       .  A
C493       C3275   1.478       .  S
C494        C495   1.405       .  A
C494        H499   1.080       .  S
C495        C496   1.408       .  A
C495       C3083   1.487       .  S
C496        C497   1.408       .  A
C496        H500   1.083       .  S
C497        C498   1.408       .  A
C497       C3096   1.490       .  S
C498        H501   1.081       .  S
C502        C503   1.402       .  A
C502        C507   1.405       .  A
C502       C3115   1.484       .  S
C503        C504   1.404       .  A
C503        H508   1.083       .  S
C504        C505   1.411       .  A
C504       C3099   1.491       .  S
C505        C506   1.412       .  A
C505        H509   1.081       .  S
C506        C507   1.412       .  A
C506       C3064   1.496       .  S
C507        H510   1.080       .  S
C511        C512   1.407       .  A
C511        C516   1.404       .  A
C511       C3048   1.487       .  S
C512        C513   1.407       .  A
C512        H517   1.082       .  S
C513        C514   1.408       .  A
C513       C3035   1.491       .  S
C514        C515   1.408       .  A
C514        H518   1.077       .  S
C515        C516   1.407       .  A
C515       C3080   1.489       .  S
C516        H519   1.083       .  S
C520        C521   1.407       .  A
C520        C525   1.404       .  A
C520       C3595   1.486       .  S
C521        C522   1.409       .  A
C521        H526   1.079       .  S
C522        C523   1.406       .  A
C522       C3032   1.491       .  S
C523        C524   1.407       .  A
C523        H527   1.083       .  S
C524        C525   1.408       .  A
C524       C3016   1.490       .  S
C525        H528   1.081       .  S
C529        C530   1.406       .  A
C529        C534   1.406       .  A
C529       C3000   1.484       .  S
C530        C531   1.404       .  A
C530        H535   1.083       .  S
C531        C532   1.406       .  A
C531       C2987   1.486       .  S
C532        C533   1.408       .  A
C532        H536   1.078       .  S
C533        C534   1.408       .  A
C533       C3019   1.490       .  S
C534        H537   1.084       .  S
C538        C539   1.405       .  A
C538        C543   1.412       .  A
C538       C2968   1.490       .  S
C539        C540   1.405       .  A
C539        H544   1.082       .  S
C540        C541   1.404       .  A
C540       C2984   1.487       .  S
C541        C542   1.410       .  A
C541        H545   1.080       .  S
C542        C543   1.413       .  A
C542       C3067   1.497       .  S
C543        H546   1.083       .  S
N547        N548   1.321       .  A
N547        C551   1.356       .  A
N547       Cu555   2.102       .  S
N548        C549   1.338       .  A
N548       Cu554   2.059       .  S
C549        C550   1.378       .  A
C549        H552   1.082       .  S
C550        C551   1.393       .  A
C550       C2939   1.477       .  S
C551        H553   1.081       .  S
Cu554       N557   2.059       .  S
Cu555       N565   2.106       .  S
Cu556       N558   2.098       .  S
Cu556       N564   2.101       .  S
N557        N558   1.320       .  A
N557        C561   1.340       .  A
N558        C559   1.355       .  A
C559        C560   1.393       .  A
C559        H562   1.082       .  S
C560        C561   1.380       .  A
C560       C2955   1.480       .  S
C561        H563   1.082       .  S
N564        N565   1.328       .  A
N564        C568   1.348       .  A
N565        C566   1.350       .  A
C566        C567   1.385       .  A
C566        H569   1.082       .  S
C567        C568   1.384       .  A
C567       C2920   1.482       .  S
C568        H570   1.082       .  S
N571        N572   1.320       .  A
N571        C575   1.357       .  A
N571       Cu579   2.101       .  S
N572        C573   1.340       .  A
N572       Cu578   2.070       .  S
C573        C574   1.384       .  A
C573        H576   1.081       .  S
C574        C575   1.394       .  A
C574       C2907   1.488       .  S
C575        H577   1.081       .  S
Cu578       N581   2.069       .  S
Cu579       N589   2.104       .  S
Cu580       N582   2.104       .  S
Cu580       N588   2.108       .  S
N581        N582   1.320       .  A
N581        C585   1.339       .  A
N582        C583   1.357       .  A
C583        C584   1.395       .  A
C583        H586   1.082       .  S
C584        C585   1.383       .  A
C584       C2952   1.486       .  S
C585        H587   1.081       .  S
N588        N589   1.329       .  A
N588        C592   1.349       .  A
N589        C590   1.349       .  A
C590        C591   1.384       .  A
C590        H593   1.082       .  S
C591        C592   1.384       .  A
C591       C3051   1.480       .  S
C592        H594   1.082       .  S
N595        N596   1.320       .  A
N595        C599   1.354       .  A
N595       Cu603   2.095       .  S
N596        C597   1.341       .  A
N596       Cu602   2.064       .  S
C597        C598   1.384       .  A
C597        H600   1.082       .  S
C598        C599   1.391       .  A
C598       C2891   1.482       .  S
C599        H601   1.082       .  S
Cu602       N605   2.064       .  S
Cu603       N613   2.099       .  S
Cu604       N606   2.102       .  S
Cu604       N612   2.105       .  S
N605        N606   1.320       .  A
N605        C609   1.338       .  A
N606        C607   1.357       .  A
C607        C608   1.393       .  A
C607        H610   1.081       .  S
C608        C609   1.383       .  A
C608       C2936   1.485       .  S
C609        H611   1.080       .  S
N612        N613   1.328       .  A
N612        C616   1.349       .  A
N613        C614   1.348       .  A
C614        C615   1.384       .  A
C614        H617   1.082       .  S
C615        C616   1.384       .  A
C615       C2875   1.480       .  S
C616        H618   1.082       .  S
N619        N620   1.321       .  A
N619        C623   1.357       .  A
N619       Cu627   2.103       .  S
N620        C621   1.341       .  A
N620       Cu626   2.072       .  S
C621        C622   1.381       .  A
C621        H624   1.082       .  S
C622        C623   1.394       .  A
C622       C2904   1.483       .  S
C623        H625   1.081       .  S
Cu626       N629   2.070       .  S
Cu627       N637   2.105       .  S
Cu628       N630   2.085       .  S
Cu628       N636   2.088       .  S
N629        N630   1.320       .  A
N629        C633   1.340       .  A
N630        C631   1.354       .  A
C631        C632   1.390       .  A
C631        H634   1.082       .  S
C632        C633   1.381       .  A
C632       C2888   1.476       .  S
C633        H635   1.082       .  S
N636        N637   1.327       .  A
N636        C640   1.346       .  A
N637        C638   1.349       .  A
C638        C639   1.385       .  A
C638        H641   1.082       .  S
C639        C640   1.383       .  A
C639       C2859   1.478       .  S
C640        H642   1.082       .  S
N643        N644   1.321       .  A
N643        C647   1.352       .  A
N643       Cu651   2.086       .  S
N644        C645   1.339       .  A
N644       Cu650   2.060       .  S
C645        C646   1.378       .  A
C645        H648   1.082       .  S
C646        C647   1.387       .  A
C646       C2843   1.469       .  S
C647        H649   1.082       .  S
Cu650       N653   2.060       .  S
Cu651       N661   2.088       .  S
Cu652       N654   2.091       .  S
Cu652       N660   2.093       .  S
N653        N654   1.320       .  A
N653        C657   1.340       .  A
N654        C655   1.352       .  A
C655        C656   1.389       .  A
C655        H658   1.082       .  S
C656        C657   1.383       .  A
C656       C2827   1.478       .  S
C657        H659   1.081       .  S
N660        N661   1.326       .  A
N660        C664   1.348       .  A
N661        C662   1.347       .  A
C662        C663   1.384       .  A
C662        H665   1.082       .  S
C663        C664   1.384       .  A
C663       C2811   1.477       .  S
C664        H666   1.082       .  S
N667        N668   1.321       .  A
N667        C671   1.351       .  A
N667       Cu675   2.089       .  S
N668        C669   1.339       .  A
N668       Cu674   2.057       .  S
C669        C670   1.380       .  A
C669        H672   1.082       .  S
C670        C671   1.387       .  A
C670       C2840   1.472       .  S
C671        H673   1.082       .  S
Cu674       N677   2.057       .  S
Cu675       N685   2.091       .  S
Cu676       N678   2.082       .  S
Cu676       N684   2.085       .  S
N677        N678   1.320       .  A
N677        C681   1.340       .  A
N678        C679   1.350       .  A
C679        C680   1.387       .  A
C679        H682   1.082       .  S
C680        C681   1.382       .  A
C680       C2795   1.475       .  S
C681        H683   1.081       .  S
N684        N685   1.325       .  A
N684        C688   1.345       .  A
N685        C686   1.349       .  A
C686        C687   1.384       .  A
C686        H689   1.082       .  S
C687        C688   1.383       .  A
C687       C2776   1.476       .  S
C688        H690   1.082       .  S
N691        N692   1.321       .  A
N691        C695   1.353       .  A
N691       Cu699   2.089       .  S
N692        C693   1.339       .  A
N692       Cu698   2.058       .  S
C693        C694   1.378       .  A
C693        H696   1.082       .  S
C694        C695   1.389       .  A
C694       C2792   1.472       .  S
C695        H697   1.082       .  S
Cu698       N701   2.059       .  S
Cu699       N709   2.092       .  S
Cu700       N702   2.083       .  S
Cu700       N708   2.085       .  S
N701        N702   1.320       .  A
N701        C705   1.339       .  A
N702        C703   1.352       .  A
C703        C704   1.388       .  A
C703        H706   1.081       .  S
C704        C705   1.379       .  A
C704       C2760   1.472       .  S
C705        H707   1.082       .  S
N708        N709   1.326       .  A
N708        C712   1.346       .  A
N709        C710   1.348       .  A
C710        C711   1.384       .  A
C710        H713   1.082       .  S
C711        C712   1.383       .  A
C711       C3419   1.475       .  S
C712        H714   1.082       .  S
N715        N716   1.319       .  A
N715        C719   1.353       .  A
N715       Cu723   2.091       .  S
N716        C717   1.339       .  A
N716       Cu722   2.051       .  S
C717        C718   1.378       .  A
C717        H720   1.082       .  S
C718        C719   1.391       .  A
C718       C2824   1.474       .  S
C719        H721   1.082       .  S
Cu722       N725   2.050       .  S
Cu723       N733   2.096       .  S
Cu724       N726   2.105       .  S
Cu724       N732   2.110       .  S
N725        N726   1.320       .  A
N725        C729   1.336       .  A
N726        C727   1.356       .  A
C727        C728   1.394       .  A
C727        H730   1.082       .  S
C728        C729   1.380       .  A
C728       C2763   1.481       .  S
C729        H731   1.081       .  S
N732        N733   1.328       .  A
N732        C736   1.350       .  A
N733        C734   1.347       .  A
C734        C735   1.382       .  A
C734        H737   1.082       .  S
C735        C736   1.387       .  A
C735       C2744   1.481       .  S
C736        H738   1.082       .  S
C739        C740   1.405       .  A
C739        C744   1.406       .  A
C739       C2728   1.482       .  S
C740        C741   1.404       .  A
C740        H745   1.083       .  S
C741        C742   1.407       .  A
C741       C2712   1.488       .  S
C742        C743   1.405       .  A
C742        H746   1.081       .  S
C743        C744   1.409       .  A
C743       C2696   1.490       .  S
C744        H747   1.081       .  S
C748        C749   1.405       .  A
C748        C753   1.405       .  A
C748       C2680   1.484       .  S
C749        C750   1.405       .  A
C749        H754   1.083       .  S
C750        C751   1.410       .  A
C750       C2699   1.492       .  S
C751        C752   1.411       .  A
C751        H755   1.078       .  S
C752        C753   1.407       .  A
C752       C2664   1.494       .  S
C753        H756   1.084       .  S
C757        C758   1.406       .  A
C757        C762   1.409       .  A
C757       C3608   1.492       .  S
C758        C759   1.406       .  A
C758        H763   1.079       .  S
C759        C760   1.405       .  A
C759       C2651   1.493       .  S
C760        C761   1.409       .  A
C760        H764   1.083       .  S
C761        C762   1.413       .  A
C761       C2667   1.494       .  S
C762        H765   1.081       .  S
C766        C767   1.405       .  A
C766        C771   1.402       .  A
C766       C3163   1.483       .  S
C767        C768   1.406       .  A
C767        H772   1.083       .  S
C768        C769   1.409       .  A
C768       C2635   1.491       .  S
C769        C770   1.410       .  A
C769        H773   1.082       .  S
C770        C771   1.407       .  A
C770       C2715   1.487       .  S
C771        H774   1.081       .  S
C775        C776   1.410       .  A
C775        C780   1.406       .  A
C775       C2923   1.492       .  S
C776        C777   1.409       .  A
C776        H781   1.083       .  S
C777        C778   1.409       .  A
C777       C2619   1.497       .  S
C778        C779   1.409       .  A
C778        H782   1.078       .  S
C779        C780   1.409       .  A
C779       C2648   1.493       .  S
C780        H783   1.083       .  S
C784        C785   1.408       .  A
C784        C789   1.404       .  A
C784       C2747   1.488       .  S
C785        C786   1.412       .  A
C785        H790   1.081       .  S
C786        C787   1.410       .  A
C786       C2616   1.496       .  S
C787        C788   1.409       .  A
C787        H791   1.083       .  S
C788        C789   1.410       .  A
C788       C2632   1.494       .  S
C789        H792   1.081       .  S
N793        N794   1.321       .  A
N793        C797   1.353       .  A
N793       Cu801   2.090       .  S
N794        C795   1.339       .  A
N794       Cu800   2.063       .  S
C795        C796   1.379       .  A
C795        H798   1.082       .  S
C796        C797   1.390       .  A
C796       C2600   1.474       .  S
C797        H799   1.082       .  S
Cu800       N803   2.064       .  S
Cu801       N811   2.092       .  S
Cu802       N804   2.089       .  S
Cu802       N810   2.091       .  S
N803        N804   1.321       .  A
N803        C807   1.341       .  A
N804        C805   1.352       .  A
C805        C806   1.389       .  A
C805        H808   1.082       .  S
C806        C807   1.380       .  A
C806       C2584   1.475       .  S
C807        H809   1.082       .  S
N810        N811   1.326       .  A
N810        C814   1.347       .  A
N811        C812   1.347       .  A
C812        C813   1.384       .  A
C812        H815   1.082       .  S
C813        C814   1.383       .  A
C813       C2568   1.476       .  S
C814        H816   1.082       .  S
N817        N818   1.320       .  A
N817        C821   1.354       .  A
N817       Cu825   2.088       .  S
N818        C819   1.338       .  A
N818       Cu824   2.058       .  S
C819        C820   1.382       .  A
C819        H822   1.081       .  S
C820        C821   1.391       .  A
C820       C2603   1.479       .  S
C821        H823   1.082       .  S
Cu824       N827   2.058       .  S
Cu825       N835   2.091       .  S
Cu826       N828   2.088       .  S
Cu826       N834   2.091       .  S
N827        N828   1.320       .  A
N827        C831   1.339       .  A
N828        C829   1.353       .  A
C829        C830   1.390       .  A
C829        H832   1.081       .  S
C830        C831   1.379       .  A
C830       C2552   1.473       .  S
C831        H833   1.082       .  S
N834        N835   1.327       .  A
N834        C838   1.347       .  A
N835        C836   1.346       .  A
C836        C837   1.382       .  A
C836        H839   1.082       .  S
C837        C838   1.382       .  A
C837       C3323   1.473       .  S
C838        H840   1.082       .  S
N841        N842   1.321       .  A
N841        C845   1.353       .  A
N841       Cu849   2.101       .  S
N842        C843   1.341       .  A
N842       Cu848   2.063       .  S
C843        C844   1.383       .  A
C843        H846   1.082       .  S
C844        C845   1.391       .  A
C844       C2587   1.481       .  S
C845        H847   1.082       .  S
Cu848       N851   2.063       .  S
Cu849       N859   2.104       .  S
Cu850       N852   2.095       .  S
Cu850       N858   2.097       .  S
N851        N852   1.321       .  A
N851        C855   1.340       .  A
N852        C853   1.354       .  A
C853        C854   1.390       .  A
C853        H856   1.082       .  S
C854        C855   1.380       .  A
C854       C2536   1.476       .  S
C855        H857   1.082       .  S
N858        N859   1.327       .  A
N858        C862   1.348       .  A
N859        C860   1.350       .  A
C860        C861   1.387       .  A
C860        H863   1.082       .  S
C861        C862   1.384       .  A
C861       C2523   1.483       .  S
C862        H864   1.082       .  S
N865        N866   1.321       .  A
N865        C869   1.354       .  A
N865       Cu873   2.095       .  S
N866        C867   1.338       .  A
N866       Cu872   2.059       .  S
C867        C868   1.382       .  A
C867        H870   1.081       .  S
C868        C869   1.391       .  A
C868       C2539   1.481       .  S
C869        H871   1.082       .  S
Cu872       N875   2.059       .  S
Cu873       N883   2.098       .  S
Cu874       N876   2.082       .  S
Cu874       N882   2.086       .  S
N875        N876   1.319       .  A
N875        C879   1.339       .  A
N876        C877   1.352       .  A
C877        C878   1.390       .  A
C877        H880   1.082       .  S
C878        C879   1.383       .  A
C878       C2555   1.478       .  S
C879        H881   1.081       .  S
N882        N883   1.327       .  A
N882        C886   1.345       .  A
N883        C884   1.349       .  A
C884        C885   1.384       .  A
C884        H887   1.082       .  S
C885        C886   1.382       .  A
C885       C2683   1.475       .  S
C886        H888   1.082       .  S
N889        N890   1.319       .  A
N889        C893   1.351       .  A
N889       Cu897   2.080       .  S
N890        C891   1.338       .  A
N890       Cu896   2.054       .  S
C891        C892   1.381       .  A
C891        H894   1.081       .  S
C892        C893   1.388       .  A
C892       C2504   1.475       .  S
C893        H895   1.082       .  S
Cu896       N899   2.053       .  S
Cu897       N907   2.082       .  S
Cu898       N900   2.083       .  S
Cu898       N906   2.086       .  S
N899        N900   1.320       .  A
N899        C903   1.339       .  A
N900        C901   1.351       .  A
C901        C902   1.389       .  A
C901        H904   1.081       .  S
C902        C903   1.378       .  A
C902       C2488   1.470       .  S
C903        H905   1.082       .  S
N906        N907   1.327       .  A
N906        C910   1.345       .  A
N907        C908   1.345       .  A
C908        C909   1.381       .  A
C908        H911   1.082       .  S
C909        C910   1.380       .  A
C909       C2472   1.469       .  S
C910        H912   1.082       .  S
N913        N914   1.319       .  A
N913        C917   1.352       .  A
N913       Cu921   2.085       .  S
N914        C915   1.338       .  A
N914       Cu920   2.053       .  S
C915        C916   1.381       .  A
C915        H918   1.082       .  S
C916        C917   1.390       .  A
C916       C2459   1.476       .  S
C917        H919   1.082       .  S
Cu920       N923   2.053       .  S
Cu921       N931   2.089       .  S
Cu922       N924   2.093       .  S
Cu922       N930   2.096       .  S
N923        N924   1.320       .  A
N923        C927   1.338       .  A
N924        C925   1.354       .  A
C925        C926   1.391       .  A
C925        H928   1.082       .  S
C926        C927   1.377       .  A
C926       C2507   1.473       .  S
C927        H929   1.082       .  S
N930        N931   1.327       .  A
N930        C934   1.348       .  A
N931        C932   1.345       .  A
C932        C933   1.381       .  A
C932        H935   1.082       .  S
C933        C934   1.384       .  A
C933       C2440   1.474       .  S
C934        H936   1.082       .  S
N937        N938   1.320       .  A
N937        C941   1.356       .  A
N937       Cu945   2.111       .  S
N938        C939   1.339       .  A
N938       Cu944   2.050       .  S
C939        C940   1.378       .  A
C939        H942   1.082       .  S
C940        C941   1.395       .  A
C940       C2424   1.479       .  S
C941        H943   1.082       .  S
Cu944       N947   2.049       .  S
Cu945       N955   2.114       .  S
Cu946       N948   2.089       .  S
Cu946       N954   2.094       .  S
N947        N948   1.319       .  A
N947        C951   1.337       .  A
N948        C949   1.354       .  A
C949        C950   1.391       .  A
C949        H952   1.081       .  S
C950        C951   1.377       .  A
C950       C2456   1.471       .  S
C951        H953   1.082       .  S
N954        N955   1.328       .  A
N954        C958   1.347       .  A
N955        C956   1.352       .  A
C956        C957   1.387       .  A
C956        H959   1.082       .  S
C957        C958   1.383       .  A
C957       C2408   1.483       .  S
C958        H960   1.082       .  S
N961        N962   1.321       .  A
N961        C965   1.353       .  A
N961       Cu969   2.096       .  S
N962        C963   1.340       .  A
N962       Cu968   2.060       .  S
C963        C964   1.382       .  A
C963        H966   1.082       .  S
C964        C965   1.391       .  A
C964       C2427   1.480       .  S
C965        H967   1.082       .  S
Cu968       N971   2.059       .  S
Cu969       N979   2.098       .  S
Cu970       N972   2.084       .  S
Cu970       N978   2.087       .  S
N971        N972   1.320       .  A
N971        C975   1.339       .  A
N972        C973   1.351       .  A
C973        C974   1.389       .  A
C973        H976   1.082       .  S
C974        C975   1.381       .  A
C974       C2491   1.474       .  S
C975        H977   1.081       .  S
N978        N979   1.327       .  A
N978        C982   1.346       .  A
N979        C980   1.348       .  A
C980        C981   1.386       .  A
C980        H983   1.082       .  S
C981        C982   1.381       .  A
C981       C2392   1.476       .  S
C982        H984   1.082       .  S
C985        C986   1.406       .  A
C985        C990   1.406       .  A
C985       C2779   1.487       .  S
C986        C987   1.409       .  A
C986        H991   1.081       .  S
C987        C988   1.409       .  A
C987       C2376   1.494       .  S
C988        C989   1.410       .  A
C988        H992   1.081       .  S
C989        C990   1.407       .  A
C989       C2363   1.492       .  S
C990        H993   1.082       .  S
C994        C995   1.409       .  A
C994        C999   1.404       .  A
C994       C2344   1.486       .  S
C995        C996   1.410       .  A
C995       H1000   1.080       .  S
C996        C997   1.406       .  A
C996       C2360   1.493       .  S
C997        C998   1.409       .  A
C997       H1001   1.081       .  S
C998        C999   1.406       .  A
C998       C2328   1.491       .  S
C999       H1002   1.084       .  S
C1003      C1004   1.406       .  A
C1003      C1008   1.405       .  A
C1003      C2312   1.486       .  S
C1004      C1005   1.410       .  A
C1004      H1009   1.081       .  S
C1005      C1006   1.409       .  A
C1005      C2331   1.492       .  S
C1006      C1007   1.408       .  A
C1006      H1010   1.081       .  S
C1007      C1008   1.406       .  A
C1007      C2299   1.492       .  S
C1008      H1011   1.083       .  S
C1012      C1013   1.410       .  A
C1012      C1017   1.410       .  A
C1012      C3547   1.490       .  S
C1013      C1014   1.406       .  A
C1013      H1018   1.083       .  S
C1014      C1015   1.405       .  A
C1014      C2379   1.493       .  S
C1015      C1016   1.407       .  A
C1015      H1019   1.078       .  S
C1016      C1017   1.407       .  A
C1016      C2283   1.491       .  S
C1017      H1020   1.082       .  S
C1021      C1022   1.402       .  A
C1021      C1026   1.400       .  A
C1021      C2571   1.484       .  S
C1022      C1023   1.412       .  A
C1022      H1027   1.080       .  S
C1023      C1024   1.411       .  A
C1023      C2296   1.494       .  S
C1024      C1025   1.410       .  A
C1024      H1028   1.083       .  S
C1025      C1026   1.407       .  A
C1025      C2264   1.492       .  S
C1026      H1029   1.079       .  S
C1030      C1031   1.406       .  A
C1030      C1035   1.404       .  A
C1030      C2395   1.482       .  S
C1031      C1032   1.407       .  A
C1031      H1036   1.083       .  S
C1032      C1033   1.406       .  A
C1032      C2267   1.490       .  S
C1033      C1034   1.407       .  A
C1033      H1037   1.081       .  S
C1034      C1035   1.407       .  A
C1034      C2280   1.487       .  S
C1035      H1038   1.082       .  S
N1039      N1040   1.319       .  A
N1039      C1043   1.358       .  A
N1039     Cu1047   2.108       .  S
N1040      C1041   1.337       .  A
N1040     Cu1046   2.056       .  S
C1041      C1042   1.383       .  A
C1041      H1044   1.081       .  S
C1042      C1043   1.396       .  A
C1042      C2232   1.488       .  S
C1043      H1045   1.082       .  S
Cu1046     N1049   2.056       .  S
Cu1047     N1057   2.112       .  S
Cu1048     N1050   2.101       .  S
Cu1048     N1056   2.105       .  S
N1049      N1050   1.321       .  A
N1049      C1053   1.339       .  A
N1050      C1051   1.355       .  A
C1051      C1052   1.392       .  A
C1051      H1054   1.081       .  S
C1052      C1053   1.378       .  A
C1052      C2251   1.476       .  S
C1053      H1055   1.082       .  S
N1056      N1057   1.329       .  A
N1056      C1060   1.351       .  A
N1057      C1058   1.349       .  A
C1058      C1059   1.386       .  A
C1058      H1061   1.081       .  S
C1059      C1060   1.386       .  A
C1059      C2219   1.485       .  S
C1060      H1062   1.082       .  S
N1063      N1064   1.320       .  A
N1063      C1067   1.356       .  A
N1063     Cu1071   2.103       .  S
N1064      C1065   1.338       .  A
N1064     Cu1070   2.054       .  S
C1065      C1066   1.378       .  A
C1065      H1068   1.082       .  S
C1066      C1067   1.394       .  A
C1066      C2200   1.478       .  S
C1067      H1069   1.082       .  S
Cu1070     N1073   2.054       .  S
Cu1071     N1081   2.106       .  S
Cu1072     N1074   2.101       .  S
Cu1072     N1080   2.105       .  S
N1073      N1074   1.320       .  A
N1073      C1077   1.339       .  A
N1074      C1075   1.355       .  A
C1075      C1076   1.392       .  A
C1075      H1078   1.082       .  S
C1076      C1077   1.381       .  A
C1076      C2248   1.480       .  S
C1077      H1079   1.082       .  S
N1080      N1081   1.328       .  A
N1080      C1084   1.349       .  A
N1081      C1082   1.350       .  A
C1082      C1083   1.385       .  A
C1082      H1085   1.082       .  S
C1083      C1084   1.386       .  A
C1083      C3883   1.484       .  S
C1084      H1086   1.082       .  S
N1087      N1088   1.320       .  A
N1087      C1091   1.356       .  A
N1087     Cu1095   2.099       .  S
N1088      C1089   1.339       .  A
N1088     Cu1094   2.063       .  S
C1089      C1090   1.383       .  A
C1089      H1092   1.080       .  S
C1090      C1091   1.393       .  A
C1090      C2187   1.483       .  S
C1091      H1093   1.081       .  S
Cu1094     N1097   2.063       .  S
Cu1095     N1105   2.102       .  S
Cu1096     N1098   2.090       .  S
Cu1096     N1104   2.093       .  S
N1097      N1098   1.320       .  A
N1097      C1101   1.339       .  A
N1098      C1099   1.355       .  A
C1099      C1100   1.392       .  A
C1099      H1102   1.082       .  S
C1100      C1101   1.381       .  A
C1100      C2235   1.478       .  S
C1101      H1103   1.082       .  S
N1104      N1105   1.328       .  A
N1104      C1108   1.346       .  A
N1105      C1106   1.350       .  A
C1106      C1107   1.385       .  A
C1106      H1109   1.082       .  S
C1107      C1108   1.383       .  A
C1107      C2315   1.478       .  S
C1108      H1110   1.082       .  S
N1111      N1112   1.318       .  A
N1111      C1115   1.356       .  A
N1111     Cu1119   2.100       .  S
N1112      C1113   1.337       .  A
N1112     Cu1118   2.051       .  S
C1113      C1114   1.382       .  A
C1113      H1116   1.081       .  S
C1114      C1115   1.394       .  A
C1114      C2203   1.483       .  S
C1115      H1117   1.082       .  S
Cu1118     N1121   2.050       .  S
Cu1119     N1129   2.105       .  S
Cu1120     N1122   2.101       .  S
Cu1120     N1128   2.106       .  S
N1121      N1122   1.319       .  A
N1121      C1125   1.336       .  A
N1122      C1123   1.357       .  A
C1123      C1124   1.395       .  A
C1123      H1126   1.081       .  S
C1124      C1125   1.377       .  A
C1124      C2184   1.477       .  S
C1125      H1127   1.082       .  S
N1128      N1129   1.330       .  A
N1128      C1132   1.349       .  A
N1129      C1130   1.348       .  A
C1130      C1131   1.384       .  A
C1130      H1133   1.082       .  S
C1131      C1132   1.384       .  A
C1131      C3352   1.480       .  S
C1132      H1134   1.082       .  S
N1135      N1136   1.319       .  A
N1135      C1139   1.353       .  A
N1135     Cu1143   2.104       .  S
N1136      C1137   1.341       .  A
N1136     Cu1142   2.053       .  S
C1137      C1138   1.382       .  A
C1137      H1140   1.082       .  S
C1138      C1139   1.392       .  A
C1138      C2168   1.481       .  S
C1139      H1141   1.082       .  S
Cu1142     N1145   2.052       .  S
Cu1143     N1153   2.108       .  S
Cu1144     N1146   2.082       .  S
Cu1144     N1152   2.085       .  S
N1145      N1146   1.320       .  A
N1145      C1149   1.336       .  A
N1146      C1147   1.352       .  A
C1147      C1148   1.388       .  A
C1147      H1150   1.082       .  S
C1148      C1149   1.379       .  A
C1148      C2152   1.471       .  S
C1149      H1151   1.081       .  S
N1152      N1153   1.327       .  A
N1152      C1156   1.347       .  A
N1153      C1154   1.349       .  A
C1154      C1155   1.387       .  A
C1154      H1157   1.082       .  S
C1155      C1156   1.382       .  A
C1155      C2136   1.479       .  S
C1156      H1158   1.082       .  S
N1159      N1160   1.319       .  A
N1159      C1163   1.354       .  A
N1159     Cu1167   2.094       .  S
N1160      C1161   1.339       .  A
N1160     Cu1166   2.054       .  S
C1161      C1162   1.379       .  A
C1161      H1164   1.082       .  S
C1162      C1163   1.392       .  A
C1162      C2171   1.476       .  S
C1163      H1165   1.082       .  S
Cu1166     N1169   2.053       .  S
Cu1167     N1177   2.098       .  S
Cu1168     N1170   2.096       .  S
Cu1168     N1176   2.099       .  S
N1169      N1170   1.320       .  A
N1169      C1173   1.337       .  A
N1170      C1171   1.355       .  A
C1171      C1172   1.392       .  A
C1171      H1174   1.082       .  S
C1172      C1173   1.380       .  A
C1172      C2120   1.479       .  S
C1173      H1175   1.081       .  S
N1176      N1177   1.328       .  A
N1176      C1180   1.348       .  A
N1177      C1178   1.347       .  A
C1178      C1179   1.382       .  A
C1178      H1181   1.082       .  S
C1179      C1180   1.384       .  A
C1179      C3003   1.476       .  S
C1180      H1182   1.082       .  S
N1183      N1184   1.321       .  A
N1183      C1187   1.353       .  A
N1183     Cu1191   2.095       .  S
N1184      C1185   1.340       .  A
N1184     Cu1190   2.057       .  S
C1185      C1186   1.378       .  A
C1185      H1188   1.082       .  S
C1186      C1187   1.391       .  A
C1186      C2123   1.474       .  S
C1187      H1189   1.082       .  S
Cu1190     N1193   2.057       .  S
Cu1191     N1201   2.098       .  S
Cu1192     N1194   2.080       .  S
Cu1192     N1200   2.084       .  S
N1193      N1194   1.320       .  A
N1193      C1197   1.339       .  A
N1194      C1195   1.351       .  A
C1195      C1196   1.388       .  A
C1195      H1198   1.082       .  S
C1196      C1197   1.379       .  A
C1196      C2104   1.471       .  S
C1197      H1199   1.082       .  S
N1200      N1201   1.327       .  A
N1200      C1204   1.346       .  A
N1201      C1202   1.348       .  A
C1202      C1203   1.385       .  A
C1202      H1205   1.082       .  S
C1203      C1204   1.380       .  A
C1203      C3707   1.475       .  S
C1204      H1206   1.082       .  S
N1207      N1208   1.320       .  A
N1207      C1211   1.354       .  A
N1207     Cu1215   2.095       .  S
N1208      C1209   1.336       .  A
N1208     Cu1214   2.043       .  S
C1209      C1210   1.375       .  A
C1209      H1212   1.082       .  S
C1210      C1211   1.391       .  A
C1210      C2155   1.470       .  S
C1211      H1213   1.081       .  S
Cu1214     N1217   2.044       .  S
Cu1215     N1225   2.100       .  S
Cu1216     N1218   2.086       .  S
Cu1216     N1224   2.090       .  S
N1217      N1218   1.318       .  A
N1217      C1221   1.337       .  A
N1218      C1219   1.352       .  A
C1219      C1220   1.390       .  A
C1219      H1222   1.082       .  S
C1220      C1221   1.379       .  A
C1220      C2107   1.473       .  S
C1221      H1223   1.082       .  S
N1224      N1225   1.328       .  A
N1224      C1228   1.345       .  A
N1225      C1226   1.349       .  A
C1226      C1227   1.384       .  A
C1226      H1229   1.082       .  S
C1227      C1228   1.382       .  A
C1227      C2088   1.477       .  S
C1228      H1230   1.082       .  S
C1231      C1232   1.408       .  A
C1231      C1236   1.409       .  A
C1231      C2216   1.491       .  S
C1232      C1233   1.409       .  A
C1232      H1237   1.083       .  S
C1233      C1234   1.411       .  A
C1233      C2056   1.497       .  S
C1234      C1235   1.410       .  A
C1234      H1238   1.077       .  S
C1235      C1236   1.408       .  A
C1235      C2072   1.497       .  S
C1236      H1239   1.083       .  S
C1240      C1241   1.403       .  A
C1240      C1245   1.405       .  A
C1240      C2091   1.484       .  S
C1241      C1242   1.409       .  A
C1241      H1246   1.081       .  S
C1242      C1243   1.412       .  A
C1242      C2075   1.496       .  S
C1243      C1244   1.413       .  A
C1243      H1247   1.081       .  S
C1244      C1245   1.407       .  A
C1244      C2040   1.497       .  S
C1245      H1248   1.083       .  S
C1249      C1250   1.408       .  A
C1249      C1254   1.408       .  A
C1249      C2411   1.491       .  S
C1250      C1251   1.410       .  A
C1250      H1255   1.080       .  S
C1251      C1252   1.409       .  A
C1251      C2024   1.495       .  S
C1252      C1253   1.409       .  A
C1252      H1256   1.083       .  S
C1253      C1254   1.412       .  A
C1253      C2043   1.498       .  S
C1254      H1257   1.081       .  S
C1258      C1259   1.410       .  A
C1258      C1263   1.409       .  A
C1258      C3515   1.491       .  S
C1259      C1260   1.408       .  A
C1259      H1264   1.083       .  S
C1260      C1261   1.410       .  A
C1260      C2008   1.497       .  S
C1261      C1262   1.409       .  A
C1261      H1265   1.078       .  S
C1262      C1263   1.409       .  A
C1262      C2027   1.496       .  S
C1263      H1266   1.083       .  S
C1267      C1268   1.404       .  A
C1267      C1272   1.404       .  A
C1267      C3211   1.485       .  S
C1268      C1269   1.407       .  A
C1268      H1273   1.083       .  S
C1269      C1270   1.411       .  A
C1269      C1992   1.492       .  S
C1270      C1271   1.410       .  A
C1270      H1274   1.081       .  S
C1271      C1272   1.408       .  A
C1271      C2011   1.494       .  S
C1272      H1275   1.081       .  S
C1276      C1277   1.404       .  A
C1276      C1281   1.409       .  A
C1276      C1976   1.487       .  S
C1277      C1278   1.409       .  A
C1277      H1282   1.081       .  S
C1278      C1279   1.406       .  A
C1278      C1995   1.492       .  S
C1279      C1280   1.408       .  A
C1279      H1283   1.083       .  S
C1280      C1281   1.410       .  A
C1280      C2059   1.494       .  S
C1281      H1284   1.081       .  S
C1285      C1286   1.410       .  A
C1285      C1290   1.406       .  A
C1285      C2872   1.488       .  S
C1286      C1287   1.409       .  A
C1286      H1291   1.082       .  S
C1287      C1288   1.409       .  A
C1287      C1944   1.496       .  S
C1288      C1289   1.407       .  A
C1288      H1292   1.080       .  S
C1289      C1290   1.406       .  A
C1289      C1963   1.489       .  S
C1290      H1293   1.082       .  S
C1294      C1295   1.406       .  A
C1294      C1299   1.404       .  A
C1294      C2475   1.480       .  S
C1295      C1296   1.405       .  A
C1295      H1300   1.083       .  S
C1296      C1297   1.408       .  A
C1296      C1931   1.491       .  S
C1297      C1298   1.409       .  A
C1297      H1301   1.077       .  S
C1298      C1299   1.404       .  A
C1298      C1960   1.489       .  S
C1299      H1302   1.084       .  S
C1303      C1304   1.403       .  A
C1303      C1308   1.407       .  A
C1303      C2808   1.486       .  S
C1304      C1305   1.407       .  A
C1304      H1309   1.083       .  S
C1305      C1306   1.411       .  A
C1305      C1912   1.493       .  S
C1306      C1307   1.411       .  A
C1306      H1310   1.081       .  S
C1307      C1308   1.410       .  A
C1307      C1947   1.495       .  S
C1308      H1311   1.080       .  S
C1312      C1313   1.404       .  A
C1312      C1317   1.407       .  A
C1312      C1896   1.490       .  S
C1313      C1314   1.410       .  A
C1313      H1318   1.080       .  S
C1314      C1315   1.409       .  A
C1314      C1880   1.497       .  S
C1315      C1316   1.411       .  A
C1315      H1319   1.083       .  S
C1316      C1317   1.411       .  A
C1316      C1915   1.496       .  S
C1317      H1320   1.079       .  S
C1321      C1322   1.404       .  A
C1321      C1326   1.410       .  A
C1321      C2520   1.488       .  S
C1322      C1323   1.407       .  A
C1322      H1327   1.081       .  S
C1323      C1324   1.406       .  A
C1323      C1928   1.491       .  S
C1324      C1325   1.410       .  A
C1324      H1328   1.081       .  S
C1325      C1326   1.412       .  A
C1325      C1867   1.495       .  S
C1326      H1329   1.083       .  S
C1330      C1331   1.407       .  A
C1330      C1335   1.407       .  A
C1330      C1848   1.491       .  S
C1331      C1332   1.411       .  A
C1331      H1336   1.083       .  S
C1332      C1333   1.411       .  A
C1332      C1883   1.496       .  S
C1333      C1334   1.408       .  A
C1333      H1337   1.081       .  S
C1334      C1335   1.408       .  A
C1334      C1864   1.493       .  S
C1335      H1338   1.081       .  S
N1339      N1340   1.319       .  A
N1339      C1343   1.357       .  A
N1339     Cu1347   2.103       .  S
N1340      C1341   1.334       .  A
N1340     Cu1346   2.041       .  S
C1341      C1342   1.375       .  A
C1341      H1344   1.082       .  S
C1342      C1343   1.394       .  A
C1342      C1816   1.474       .  S
C1343      H1345   1.082       .  S
Cu1346     N1349   2.042       .  S
Cu1347     N1357   2.108       .  S
Cu1348     N1350   2.100       .  S
Cu1348     N1356   2.105       .  S
N1349      N1350   1.318       .  A
N1349      C1353   1.336       .  A
N1350      C1351   1.356       .  A
C1351      C1352   1.394       .  A
C1351      H1354   1.081       .  S
C1352      C1353   1.380       .  A
C1352      C1832   1.480       .  S
C1353      H1355   1.081       .  S
N1356      N1357   1.329       .  A
N1356      C1360   1.348       .  A
N1357      C1358   1.350       .  A
C1358      C1359   1.386       .  A
C1358      H1361   1.082       .  S
C1359      C1360   1.383       .  A
C1359      C1800   1.482       .  S
C1360      H1362   1.082       .  S
N1363      N1364   1.321       .  A
N1363      C1367   1.353       .  A
N1363     Cu1371   2.088       .  S
N1364      C1365   1.341       .  A
N1364     Cu1370   2.071       .  S
C1365      C1366   1.381       .  A
C1365      H1368   1.082       .  S
C1366      C1367   1.389       .  A
C1366      C1835   1.475       .  S
C1367      H1369   1.081       .  S
Cu1370     N1373   2.070       .  S
Cu1371     N1381   2.091       .  S
Cu1372     N1374   2.096       .  S
Cu1372     N1380   2.098       .  S
N1373      N1374   1.321       .  A
N1373      C1377   1.341       .  A
N1374      C1375   1.355       .  A
C1375      C1376   1.392       .  A
C1375      H1378   1.082       .  S
C1376      C1377   1.381       .  A
C1376      C1784   1.480       .  S
C1377      H1379   1.082       .  S
N1380      N1381   1.327       .  A
N1380      C1384   1.347       .  A
N1381      C1382   1.348       .  A
C1382      C1383   1.384       .  A
C1382      H1385   1.082       .  S
C1383      C1384   1.383       .  A
C1383      C1979   1.477       .  S
C1384      H1386   1.082       .  S
N1387      N1388   1.321       .  A
N1387      C1391   1.354       .  A
N1387     Cu1395   2.092       .  S
N1388      C1389   1.338       .  A
N1388     Cu1394   2.061       .  S
C1389      C1390   1.381       .  A
C1389      H1392   1.081       .  S
C1390      C1391   1.390       .  A
C1390      C1819   1.478       .  S
C1391      H1393   1.082       .  S
Cu1394     N1397   2.061       .  S
Cu1395     N1405   2.095       .  S
Cu1396     N1398   2.100       .  S
Cu1396     N1404   2.102       .  S
N1397      N1398   1.320       .  A
N1397      C1401   1.342       .  A
N1398      C1399   1.354       .  A
C1399      C1400   1.392       .  A
C1399      H1402   1.081       .  S
C1400      C1401   1.380       .  A
C1400      C1768   1.479       .  S
C1401      H1403   1.082       .  S
N1404      N1405   1.327       .  A
N1404      C1408   1.348       .  A
N1405      C1406   1.349       .  A
C1406      C1407   1.386       .  A
C1406      H1409   1.082       .  S
C1407      C1408   1.384       .  A
C1407      C1899   1.481       .  S
C1408      H1410   1.082       .  S
N1411      N1412   1.320       .  A
N1411      C1415   1.354       .  A
N1411     Cu1419   2.096       .  S
N1412      C1413   1.342       .  A
N1412     Cu1418   2.068       .  S
C1413      C1414   1.384       .  A
C1413      H1416   1.081       .  S
C1414      C1415   1.392       .  A
C1414      C1771   1.484       .  S
C1415      H1417   1.082       .  S
Cu1418     N1421   2.068       .  S
Cu1419     N1429   2.099       .  S
Cu1420     N1422   2.096       .  S
Cu1420     N1428   2.099       .  S
N1421      N1422   1.321       .  A
N1421      C1425   1.340       .  A
N1422      C1423   1.354       .  A
C1423      C1424   1.392       .  A
C1423      H1426   1.082       .  S
C1424      C1425   1.384       .  A
C1424      C1787   1.484       .  S
C1425      H1427   1.082       .  S
N1428      N1429   1.328       .  A
N1428      C1432   1.349       .  A
N1429      C1430   1.348       .  A
C1430      C1431   1.383       .  A
C1430      H1433   1.082       .  S
C1431      C1432   1.385       .  A
C1431      C2347   1.478       .  S
C1432      H1434   1.082       .  S
N1435      N1436   1.319       .  A
N1435      C1439   1.355       .  A
N1435     Cu1443   2.102       .  S
N1436      C1437   1.338       .  A
N1436     Cu1442   2.049       .  S
C1437      C1438   1.377       .  A
C1437      H1440   1.082       .  S
C1438      C1439   1.394       .  A
C1438      C1736   1.476       .  S
C1439      H1441   1.082       .  S
Cu1442     N1445   2.049       .  S
Cu1443     N1453   2.107       .  S
Cu1444     N1446   2.101       .  S
Cu1444     N1452   2.106       .  S
N1445      N1446   1.319       .  A
N1445      C1449   1.336       .  A
N1446      C1447   1.356       .  A
C1447      C1448   1.394       .  A
C1447      H1450   1.081       .  S
C1448      C1449   1.381       .  A
C1448      C1752   1.482       .  S
C1449      H1451   1.080       .  S
N1452      N1453   1.329       .  A
N1452      C1456   1.349       .  A
N1453      C1454   1.349       .  A
C1454      C1455   1.385       .  A
C1454      H1457   1.082       .  S
C1455      C1456   1.384       .  A
C1455      C1851   1.482       .  S
C1456      H1458   1.082       .  S
N1459      N1460   1.320       .  A
N1459      C1463   1.356       .  A
N1459     Cu1467   2.099       .  S
N1460      C1461   1.338       .  A
N1460     Cu1466   2.059       .  S
C1461      C1462   1.381       .  A
C1461      H1464   1.081       .  S
C1462      C1463   1.393       .  A
C1462      C1720   1.482       .  S
C1463      H1465   1.082       .  S
Cu1466     N1469   2.060       .  S
Cu1467     N1477   2.102       .  S
Cu1468     N1470   2.085       .  S
Cu1468     N1476   2.089       .  S
N1469      N1470   1.319       .  A
N1469      C1473   1.339       .  A
N1470      C1471   1.353       .  A
C1471      C1472   1.390       .  A
C1471      H1474   1.081       .  S
C1472      C1473   1.380       .  A
C1472      C1755   1.475       .  S
C1473      H1475   1.082       .  S
N1476      N1477   1.328       .  A
N1476      C1480   1.345       .  A
N1477      C1478   1.349       .  A
C1478      C1479   1.384       .  A
C1478      H1481   1.082       .  S
C1479      C1480   1.382       .  A
C1479      C2731   1.475       .  S
C1480      H1482   1.082       .  S
N1483      N1484   1.319       .  A
N1483      C1487   1.352       .  A
N1483     Cu1491   2.088       .  S
N1484      C1485   1.340       .  A
N1484     Cu1490   2.054       .  S
C1485      C1486   1.382       .  A
C1485      H1488   1.082       .  S
C1486      C1487   1.390       .  A
C1486      C1739   1.477       .  S
C1487      H1489   1.082       .  S
Cu1490     N1493   2.053       .  S
Cu1491     N1501   2.091       .  S
Cu1492     N1494   2.081       .  S
Cu1492     N1500   2.084       .  S
N1493      N1494   1.321       .  A
N1493      C1497   1.337       .  A
N1494      C1495   1.352       .  A
C1495      C1496   1.387       .  A
C1495      H1498   1.081       .  S
C1496      C1497   1.379       .  A
C1496      C1704   1.470       .  S
C1497      H1499   1.082       .  S
N1500      N1501   1.327       .  A
N1500      C1504   1.346       .  A
N1501      C1502   1.346       .  A
C1502      C1503   1.382       .  A
C1502      H1505   1.082       .  S
C1503      C1504   1.381       .  A
C1503      C1688   1.472       .  S
C1504      H1506   1.082       .  S
N1507      N1508   1.320       .  A
N1507      C1511   1.355       .  A
N1507     Cu1515   2.094       .  S
N1508      C1509   1.336       .  A
N1508     Cu1514   2.051       .  S
C1509      C1510   1.376       .  A
C1509      H1512   1.082       .  S
C1510      C1511   1.391       .  A
C1510      C1707   1.471       .  S
C1511      H1513   1.081       .  S
Cu1514     N1517   2.052       .  S
Cu1515     N1525   2.098       .  S
Cu1516     N1518   2.105       .  S
Cu1516     N1524   2.108       .  S
N1517      N1518   1.320       .  A
N1517      C1521   1.340       .  A
N1518      C1519   1.354       .  A
C1519      C1520   1.393       .  A
C1519      H1522   1.081       .  S
C1520      C1521   1.379       .  A
C1520      C1723   1.478       .  S
C1521      H1523   1.082       .  S
N1524      N1525   1.328       .  A
N1524      C1528   1.350       .  A
N1525      C1526   1.349       .  A
C1526      C1527   1.385       .  A
C1526      H1529   1.082       .  S
C1527      C1528   1.385       .  A
C1527      C2971   1.482       .  S
C1528      H1530   1.082       .  S
C1531      C1532   1.407       .  A
C1531      C1536   1.406       .  A
C1531      C2856   1.482       .  S
C1532      C1533   1.405       .  A
C1532      H1537   1.083       .  S
C1533      C1534   1.405       .  A
C1533      C1672   1.489       .  S
C1534      C1535   1.406       .  A
C1534      H1538   1.077       .  S
C1535      C1536   1.406       .  A
C1535      C1656   1.489       .  S
C1536      H1539   1.084       .  S
C1540      C1541   1.406       .  A
C1540      C1545   1.402       .  A
C1540      C2443   1.483       .  S
C1541      C1542   1.407       .  A
C1541      H1546   1.079       .  S
C1542      C1543   1.407       .  A
C1542      C1640   1.492       .  S
C1543      C1544   1.409       .  A
C1543      H1547   1.083       .  S
C1544      C1545   1.407       .  A
C1544      C1659   1.487       .  S
C1545      H1548   1.081       .  S
C1549      C1550   1.405       .  A
C1549      C1554   1.402       .  A
C1549      C3227   1.482       .  S
C1550      C1551   1.407       .  A
C1550      H1555   1.082       .  S
C1551      C1552   1.410       .  A
C1551      C1627   1.490       .  S
C1552      C1553   1.409       .  A
C1552      H1556   1.081       .  S
C1553      C1554   1.406       .  A
C1553      C1675   1.488       .  S
C1554      H1557   1.081       .  S
C1558      C1559   1.408       .  A
C1558      C1563   1.404       .  A
C1558      C2139   1.485       .  S
C1559      C1560   1.409       .  A
C1559      H1564   1.083       .  S
C1560      C1561   1.410       .  A
C1560      C1643   1.494       .  S
C1561      C1562   1.408       .  A
C1561      H1565   1.077       .  S
C1562      C1563   1.406       .  A
C1562      C1608   1.492       .  S
C1563      H1566   1.084       .  S
C1567      C1568   1.409       .  A
C1567      C1572   1.408       .  A
C1567      C1803   1.490       .  S
C1568      C1569   1.409       .  A
C1568      H1573   1.080       .  S
C1569      C1570   1.404       .  A
C1569      C1624   1.491       .  S
C1570      C1571   1.407       .  A
C1570      H1574   1.081       .  S
C1571      C1572   1.409       .  A
C1571      C1592   1.491       .  S
C1572      H1575   1.084       .  S
C1576      C1577   1.403       .  A
C1576      C1581   1.405       .  A
C1576      C1691   1.485       .  S
C1577      C1578   1.408       .  A
C1577      H1582   1.081       .  S
C1578      C1579   1.409       .  A
C1578      C1595   1.490       .  S
C1579      C1580   1.408       .  A
C1579      H1583   1.083       .  S
C1580      C1581   1.407       .  A
C1580      C1611   1.491       .  S
C1581      H1584   1.079       .  S
C1585      C1590   1.378       .  A
C1585      C1586   1.404       .  A
C1585      O1591   1.321       .  A
C1586      C1587   1.404       .  A
C1586      H1597   1.083       .  S
C1587      C1596   1.361       .  A
C1587      C1588   1.379       .  A
C1588      C1589   1.404       .  A
C1588      O1594   1.320       .  A
C1589      C1590   1.404       .  A
C1589      H1598   1.083       .  S
C1590      C1593   1.360       .  A
O1591      C1592   1.333       .  A
C1592      C1593   1.398       .  A
C1593      H1599   1.082       .  S
O1594      C1595   1.333       .  A
C1595      C1596   1.397       .  A
C1596      H1600   1.081       .  S
C1601      C1606   1.378       .  A
C1601      C1602   1.403       .  A
C1601      O1607   1.319       .  A
C1602      C1603   1.403       .  A
C1602      H1613   1.083       .  S
C1603      C1612   1.360       .  A
C1603      C1604   1.378       .  A
C1604      C1605   1.405       .  A
C1604      O1610   1.321       .  A
C1605      C1606   1.405       .  A
C1605      H1614   1.082       .  S
C1606      C1609   1.363       .  A
O1607      C1608   1.333       .  A
C1608      C1609   1.398       .  A
C1609      H1615   1.081       .  S
O1610      C1611   1.334       .  A
C1611      C1612   1.397       .  A
C1612      H1616   1.081       .  S
C1617      C1622   1.378       .  A
C1617      C1618   1.406       .  A
C1617      O1623   1.319       .  A
C1618      C1619   1.405       .  A
C1618      H1629   1.083       .  S
C1619      C1628   1.365       .  A
C1619      C1620   1.378       .  A
C1620      C1621   1.404       .  A
C1620      O1626   1.318       .  A
C1621      C1622   1.402       .  A
C1621      H1630   1.083       .  S
C1622      C1625   1.362       .  A
O1623      C1624   1.335       .  A
C1624      C1625   1.396       .  A
C1625      H1631   1.081       .  S
O1626      C1627   1.333       .  A
C1627      C1628   1.398       .  A
C1628      H1632   1.081       .  S
C1633      C1638   1.378       .  A
C1633      C1634   1.404       .  A
C1633      O1639   1.320       .  A
C1634      C1635   1.404       .  A
C1634      H1645   1.082       .  S
C1635      C1644   1.361       .  A
C1635      C1636   1.378       .  A
C1636      C1637   1.405       .  A
C1636      O1642   1.321       .  A
C1637      C1638   1.405       .  A
C1637      H1646   1.082       .  S
C1638      C1641   1.362       .  A
O1639      C1640   1.333       .  A
C1640      C1641   1.398       .  A
C1641      H1647   1.081       .  S
O1642      C1643   1.335       .  A
C1643      C1644   1.398       .  A
C1644      H1648   1.081       .  S
C1649      C1654   1.378       .  A
C1649      C1650   1.405       .  A
C1649      O1655   1.321       .  A
C1650      C1651   1.405       .  A
C1650      H1661   1.082       .  S
C1651      C1660   1.362       .  A
C1651      C1652   1.379       .  A
C1652      C1653   1.401       .  A
C1652      O1658   1.318       .  A
C1653      C1654   1.402       .  A
C1653      H1662   1.082       .  S
C1654      C1657   1.357       .  A
O1655      C1656   1.334       .  A
C1656      C1657   1.396       .  A
C1657      H1663   1.081       .  S
O1658      C1659   1.332       .  A
C1659      C1660   1.398       .  A
C1660      H1664   1.081       .  S
C1665      C1670   1.378       .  A
C1665      C1666   1.404       .  A
C1665      O1671   1.320       .  A
C1666      C1667   1.405       .  A
C1666      H1677   1.083       .  S
C1667      C1676   1.361       .  A
C1667      C1668   1.379       .  A
C1668      C1669   1.402       .  A
C1668      O1674   1.319       .  A
C1669      C1670   1.402       .  A
C1669      H1678   1.083       .  S
C1670      C1673   1.358       .  A
O1671      C1672   1.334       .  A
C1672      C1673   1.397       .  A
C1673      H1679   1.081       .  S
O1674      C1675   1.332       .  A
C1675      C1676   1.398       .  A
C1676      H1680   1.081       .  S
C1681      C1686   1.380       .  A
C1681      C1682   1.402       .  A
C1681      O1687   1.319       .  A
C1682      C1683   1.402       .  A
C1682      H1693   1.082       .  S
C1683      C1692   1.359       .  A
C1683      C1684   1.379       .  A
C1684      C1685   1.405       .  A
C1684      O1690   1.320       .  A
C1685      C1686   1.404       .  A
C1685      H1694   1.082       .  S
C1686      C1689   1.363       .  A
O1687      C1688   1.330       .  A
C1688      C1689   1.392       .  A
C1689      H1695   1.082       .  S
O1690      C1691   1.333       .  A
C1691      C1692   1.394       .  A
C1692      H1696   1.082       .  S
C1697      C1702   1.380       .  A
C1697      C1698   1.412       .  A
C1697      O1703   1.325       .  A
C1698      C1699   1.411       .  A
C1698      H1709   1.082       .  S
C1699      C1708   1.373       .  A
C1699      C1700   1.380       .  A
C1700      C1701   1.394       .  A
C1700      O1706   1.309       .  A
C1701      C1702   1.392       .  A
C1701      H1710   1.082       .  S
C1702      C1705   1.350       .  A
O1703      C1704   1.334       .  A
C1704      C1705   1.386       .  A
C1705      H1711   1.082       .  S
O1706      C1707   1.326       .  A
C1707      C1708   1.396       .  A
C1708      H1712   1.082       .  S
C1713      C1718   1.379       .  A
C1713      C1714   1.413       .  A
C1713      O1719   1.329       .  A
C1714      C1715   1.413   1_455  A
C1714      H1725   1.082       .  S
C1715      C1724   1.373       .  A
C1715      C1716   1.380       .  A
C1716      C1717   1.397   1_655  A
C1716      O1722   1.314       .  A
C1717      C1718   1.397       .  A
C1717      H1726   1.083       .  S
C1718      C1721   1.352       .  A
O1719      C1720   1.337       .  A
C1720      C1721   1.390       .  A
C1721      H1727   1.082       .  S
O1722      C1723   1.329       .  A
C1723      C1724   1.396       .  A
C1724      H1728   1.082       .  S
C1729      C1734   1.380       .  A
C1729      C1730   1.399       .  A
C1729      O1735   1.314       .  A
C1730      C1731   1.398   1_455  A
C1730      H1741   1.082       .  S
C1731      C1740   1.356       .  A
C1731      C1732   1.379       .  A
C1732      C1733   1.411   1_655  A
C1732      O1738   1.325       .  A
C1733      C1734   1.410       .  A
C1733      H1742   1.082       .  S
C1734      C1737   1.373       .  A
O1735      C1736   1.329       .  A
C1736      C1737   1.395       .  A
C1737      H1743   1.082       .  S
O1738      C1739   1.334       .  A
C1739      C1740   1.390       .  A
C1740      H1744   1.082       .  S
C1745      C1750   1.379       .  A
C1745      C1746   1.414       .  A
C1745      O1751   1.329       .  A
C1746      C1747   1.413       .  A
C1746      H1757   1.082       .  S
C1747      C1756   1.374       .  A
C1747      C1748   1.380       .  A
C1748      C1749   1.395       .  A
C1748      O1754   1.312       .  A
C1749      C1750   1.395       .  A
C1749      H1758   1.082       .  S
C1750      C1753   1.350       .  A
O1751      C1752   1.337       .  A
C1752      C1753   1.390       .  A
C1753      H1759   1.081       .  S
O1754      C1755   1.327       .  A
C1755      C1756   1.397       .  A
C1756      H1760   1.082       .  S
C1761      C1766   1.380       .  A
C1761      C1762   1.401       .  A
C1761      O1767   1.317       .  A
C1762      C1763   1.400       .  A
C1762      H1773   1.082       .  S
C1763      C1772   1.358       .  A
C1763      C1764   1.379       .  A
C1764      C1765   1.411       .  A
C1764      O1770   1.327       .  A
C1765      C1766   1.411       .  A
C1765      H1774   1.082       .  S
C1766      C1769   1.372       .  A
O1767      C1768   1.330       .  A
C1768      C1769   1.396       .  A
C1769      H1775   1.082       .  S
O1770      C1771   1.335       .  A
C1771      C1772   1.392       .  A
C1772      H1776   1.082       .  S
C1777      C1782   1.380       .  A
C1777      C1778   1.398   1_655  A
C1777      O1783   1.315       .  A
C1778      C1779   1.398       .  A
C1778      H1789   1.083       .  S
C1779      C1788   1.355       .  A
C1779      C1780   1.379       .  A
C1780      C1781   1.414       .  A
C1780      O1786   1.329       .  A
C1781      C1782   1.414   1_455  A
C1781      H1790   1.082       .  S
C1782      C1785   1.375       .  A
O1783      C1784   1.328       .  A
C1784      C1785   1.398       .  A
C1785      H1791   1.082       .  S
O1786      C1787   1.337       .  A
C1787      C1788   1.390       .  A
C1788      H1792   1.082       .  S
C1793      C1798   1.380       .  A
C1793      C1794   1.405       .  A
C1793      O1799   1.321       .  A
C1794      C1795   1.405       .  A
C1794      H1805   1.082       .  S
C1795      C1804   1.363       .  A
C1795      C1796   1.379       .  A
C1796      C1797   1.408       .  A
C1796      O1802   1.323       .  A
C1797      C1798   1.407       .  A
C1797      H1806   1.082       .  S
C1798      C1801   1.367       .  A
O1799      C1800   1.332       .  A
C1800      C1801   1.394       .  A
C1801      H1807   1.082       .  S
O1802      C1803   1.335       .  A
C1803      C1804   1.395       .  A
C1804      H1808   1.082       .  S
C1809      C1814   1.380       .  A
C1809      C1810   1.395   1_655  A
C1809      O1815   1.309       .  A
C1810      C1811   1.393       .  A
C1810      H1821   1.082       .  S
C1811      C1820   1.351       .  A
C1811      C1812   1.379       .  A
C1812      C1813   1.414       .  A
C1812      O1818   1.328       .  A
C1813      C1814   1.413   1_455  A
C1813      H1822   1.082       .  S
C1814      C1817   1.376       .  A
O1815      C1816   1.327       .  A
C1816      C1817   1.397       .  A
C1817      H1823   1.082       .  S
O1818      C1819   1.337       .  A
C1819      C1820   1.388       .  A
C1820      H1824   1.082       .  S
C1825      C1830   1.379       .  A
C1825      C1826   1.412       .  A
C1825      O1831   1.328       .  A
C1826      C1827   1.412       .  A
C1826      H1837   1.082       .  S
C1827      C1836   1.372       .  A
C1827      C1828   1.380       .  A
C1828      C1829   1.396       .  A
C1828      O1834   1.314       .  A
C1829      C1830   1.396       .  A
C1829      H1838   1.083       .  S
C1830      C1833   1.351       .  A
O1831      C1832   1.336       .  A
C1832      C1833   1.390       .  A
C1833      H1839   1.082       .  S
O1834      C1835   1.328       .  A
C1835      C1836   1.397       .  A
C1836      H1840   1.082       .  S
C1841      C1846   1.379       .  A
C1841      C1842   1.408       .  A
C1841      O1847   1.324       .  A
C1842      C1843   1.408       .  A
C1842      H1853   1.082       .  S
C1843      C1852   1.367       .  A
C1843      C1844   1.380       .  A
C1844      C1845   1.405       .  A
C1844      O1850   1.322       .  A
C1845      C1846   1.405       .  A
C1845      H1854   1.082       .  S
C1846      C1849   1.363       .  A
O1847      C1848   1.335       .  A
C1848      C1849   1.396       .  A
C1849      H1855   1.082       .  S
O1850      C1851   1.332       .  A
C1851      C1852   1.394       .  A
C1852      H1856   1.082       .  S
C1857      C1862   1.378       .  A
C1857      C1858   1.405       .  A
C1857      O1863   1.321       .  A
C1858      C1859   1.406       .  A
C1858      H1869   1.083       .  S
C1859      C1868   1.362       .  A
C1859      C1860   1.378       .  A
C1860      C1861   1.406       .  A
C1860      O1866   1.323       .  A
C1861      C1862   1.406       .  A
C1861      H1870   1.083       .  S
C1862      C1865   1.363       .  A
O1863      C1864   1.334       .  A
C1864      C1865   1.398       .  A
C1865      H1871   1.082       .  S
O1866      C1867   1.334       .  A
C1867      C1868   1.399       .  A
C1868      H1872   1.081       .  S
C1873      C1878   1.377       .  A
C1873      C1874   1.409       .  A
C1873      O1879   1.324       .  A
C1874      C1875   1.409       .  A
C1874      H1885   1.082       .  S
C1875      C1884   1.366       .  A
C1875      C1876   1.378       .  A
C1876      C1877   1.403       .  A
C1876      O1882   1.320       .  A
C1877      C1878   1.403       .  A
C1877      H1886   1.082       .  S
C1878      C1881   1.360       .  A
O1879      C1880   1.336       .  A
C1880      C1881   1.397       .  A
C1881      H1887   1.081       .  S
O1882      C1883   1.333       .  A
C1883      C1884   1.400       .  A
C1884      H1888   1.081       .  S
C1889      C1894   1.378       .  A
C1889      C1890   1.406       .  A
C1889      O1895   1.321       .  A
C1890      C1891   1.406       .  A
C1890      H1901   1.081       .  S
C1891      C1900   1.366       .  A
C1891      C1892   1.379       .  A
C1892      C1893   1.407       .  A
C1892      O1898   1.322       .  A
C1893      C1894   1.406       .  A
C1893      H1902   1.082       .  S
C1894      C1897   1.365       .  A
O1895      C1896   1.334       .  A
C1896      C1897   1.396       .  A
C1897      H1903   1.082       .  S
O1898      C1899   1.333       .  A
C1899      C1900   1.394       .  A
C1900      H1904   1.082       .  S
C1905      C1910   1.378       .  A
C1905      C1906   1.405       .  A
C1905      O1911   1.320       .  A
C1906      C1907   1.404       .  A
C1906      H1917   1.082       .  S
C1907      C1916   1.363       .  A
C1907      C1908   1.378       .  A
C1908      C1909   1.407       .  A
C1908      O1914   1.322       .  A
C1909      C1910   1.407       .  A
C1909      H1918   1.082       .  S
C1910      C1913   1.366       .  A
O1911      C1912   1.334       .  A
C1912      C1913   1.398       .  A
C1913      H1919   1.081       .  S
O1914      C1915   1.335       .  A
C1915      C1916   1.398       .  A
C1916      H1920   1.081       .  S
C1921      C1926   1.378       .  A
C1921      C1922   1.404       .  A
C1921      O1927   1.320       .  A
C1922      C1923   1.404       .  A
C1922      H1933   1.083       .  S
C1923      C1932   1.361       .  A
C1923      C1924   1.378       .  A
C1924      C1925   1.404       .  A
C1924      O1930   1.320       .  A
C1925      C1926   1.404       .  A
C1925      H1934   1.083       .  S
C1926      C1929   1.362       .  A
O1927      C1928   1.334       .  A
C1928      C1929   1.397       .  A
C1929      H1935   1.081       .  S
O1930      C1931   1.334       .  A
C1931      C1932   1.397       .  A
C1932      H1936   1.081       .  S
C1937      C1942   1.378       .  A
C1937      C1938   1.406       .  A
C1937      O1943   1.322       .  A
C1938      C1939   1.406       .  A
C1938      H1949   1.082       .  S
C1939      C1948   1.364       .  A
C1939      C1940   1.378       .  A
C1940      C1941   1.406       .  A
C1940      O1946   1.321       .  A
C1941      C1942   1.406       .  A
C1941      H1950   1.083       .  S
C1942      C1945   1.363       .  A
O1943      C1944   1.335       .  A
C1944      C1945   1.399       .  A
C1945      H1951   1.081       .  S
O1946      C1947   1.334       .  A
C1947      C1948   1.399       .  A
C1948      H1952   1.081       .  S
C1953      C1958   1.378       .  A
C1953      C1954   1.408       .  A
C1953      O1959   1.322       .  A
C1954      C1955   1.407       .  A
C1954      H1965   1.082       .  S
C1955      C1964   1.366       .  A
C1955      C1956   1.379       .  A
C1956      C1957   1.401       .  A
C1956      O1962   1.317       .  A
C1957      C1958   1.400       .  A
C1957      H1966   1.082       .  S
C1958      C1961   1.358       .  A
O1959      C1960   1.335       .  A
C1960      C1961   1.394       .  A
C1961      H1967   1.081       .  S
O1962      C1963   1.332       .  A
C1963      C1964   1.398       .  A
C1964      H1968   1.082       .  S
C1969      C1974   1.379       .  A
C1969      C1970   1.407       .  A
C1969      O1975   1.322       .  A
C1970      C1971   1.406       .  A
C1970      H1981   1.082       .  S
C1971      C1980   1.366       .  A
C1971      C1972   1.380       .  A
C1972      C1973   1.404       .  A
C1972      O1978   1.320       .  A
C1973      C1974   1.404       .  A
C1973      H1982   1.082       .  S
C1974      C1977   1.363       .  A
O1975      C1976   1.334       .  A
C1976      C1977   1.394       .  A
C1977      H1983   1.082       .  S
O1978      C1979   1.331       .  A
C1979      C1980   1.394       .  A
C1980      H1984   1.082       .  S
C1985      C1990   1.378       .  A
C1985      C1986   1.404       .  A
C1985      O1991   1.318       .  A
C1986      C1987   1.403       .  A
C1986      H1997   1.082       .  S
C1987      C1996   1.362       .  A
C1987      C1988   1.378       .  A
C1988      C1989   1.407       .  A
C1988      O1994   1.321       .  A
C1989      C1990   1.406       .  A
C1989      H1998   1.082       .  S
C1990      C1993   1.366       .  A
O1991      C1992   1.333       .  A
C1992      C1993   1.398       .  A
C1993      H1999   1.081       .  S
O1994      C1995   1.335       .  A
C1995      C1996   1.396       .  A
C1996      H2000   1.081       .  S
C2001      C2006   1.378       .  A
C2001      C2002   1.407       .  A
C2001      O2007   1.323       .  A
C2002      C2003   1.407       .  A
C2002      H2013   1.083       .  S
C2003      C2012   1.364       .  A
C2003      C2004   1.378       .  A
C2004      C2005   1.405       .  A
C2004      O2010   1.321       .  A
C2005      C2006   1.405       .  A
C2005      H2014   1.083       .  S
C2006      C2009   1.362       .  A
O2007      C2008   1.335       .  A
C2008      C2009   1.398       .  A
C2009      H2015   1.081       .  S
O2010      C2011   1.334       .  A
C2011      C2012   1.399       .  A
C2012      H2016   1.081       .  S
C2017      C2022   1.378       .  A
C2017      C2018   1.405       .  A
C2017      O2023   1.321       .  A
C2018      C2019   1.405       .  A
C2018      H2029   1.083       .  S
C2019      C2028   1.362       .  A
C2019      C2020   1.378       .  A
C2020      C2021   1.408       .  A
C2020      O2026   1.323       .  A
C2021      C2022   1.408       .  A
C2021      H2030   1.083       .  S
C2022      C2025   1.366       .  A
O2023      C2024   1.334       .  A
C2024      C2025   1.399       .  A
C2025      H2031   1.081       .  S
O2026      C2027   1.335       .  A
C2027      C2028   1.398       .  A
C2028      H2032   1.082       .  S
C2033      C2038   1.377       .  A
C2033      C2034   1.407       .  A
C2033      O2039   1.321       .  A
C2034      C2035   1.406       .  A
C2034      H2045   1.082       .  S
C2035      C2044   1.365       .  A
C2035      C2036   1.377       .  A
C2036      C2037   1.408       .  A
C2036      O2042   1.322       .  A
C2037      C2038   1.407       .  A
C2037      H2046   1.082       .  S
C2038      C2041   1.366       .  A
O2039      C2040   1.335       .  A
C2040      C2041   1.398       .  A
C2041      H2047   1.081       .  S
O2042      C2043   1.336       .  A
C2043      C2044   1.398       .  A
C2044      H2048   1.081       .  S
C2049      C2054   1.378       .  A
C2049      C2050   1.408       .  A
C2049      O2055   1.323       .  A
C2050      C2051   1.408       .  A
C2050      H2061   1.083       .  S
C2051      C2060   1.367       .  A
C2051      C2052   1.378       .  A
C2052      C2053   1.404       .  A
C2052      O2058   1.319       .  A
C2053      C2054   1.404       .  A
C2053      H2062   1.083       .  S
C2054      C2057   1.362       .  A
O2055      C2056   1.336       .  A
C2056      C2057   1.398       .  A
C2057      H2063   1.081       .  S
O2058      C2059   1.334       .  A
C2059      C2060   1.399       .  A
C2060      H2064   1.081       .  S
C2065      C2070   1.378       .  A
C2065      C2066   1.406       .  A
C2065      O2071   1.322       .  A
C2066      C2067   1.406       .  A
C2066      H2077   1.082       .  S
C2067      C2076   1.363       .  A
C2067      C2068   1.378       .  A
C2068      C2069   1.406       .  A
C2068      O2074   1.322       .  A
C2069      C2070   1.406       .  A
C2069      H2078   1.083       .  S
C2070      C2073   1.363       .  A
O2071      C2072   1.335       .  A
C2072      C2073   1.399       .  A
C2073      H2079   1.081       .  S
O2074      C2075   1.334       .  A
C2075      C2076   1.399       .  A
C2076      H2080   1.081       .  S
C2081      C2086   1.380       .  A
C2081      C2082   1.404       .  A
C2081      O2087   1.321       .  A
C2082      C2083   1.404       .  A
C2082      H2093   1.082       .  S
C2083      C2092   1.362       .  A
C2083      C2084   1.380       .  A
C2084      C2085   1.405       .  A
C2084      O2090   1.321       .  A
C2085      C2086   1.405       .  A
C2085      H2094   1.082       .  S
C2086      C2089   1.363       .  A
O2087      C2088   1.331       .  A
C2088      C2089   1.393       .  A
C2089      H2095   1.082       .  S
O2090      C2091   1.333       .  A
C2091      C2092   1.393       .  A
C2092      H2096   1.082       .  S
C2097      C2102   1.381       .  A
C2097      C2098   1.397       .  A
C2097      O2103   1.313       .  A
C2098      C2099   1.396       .  A
C2098      H2109   1.082       .  S
C2099      C2108   1.353       .  A
C2099      C2100   1.380       .  A
C2100      C2101   1.409       .  A
C2100      O2106   1.324       .  A
C2101      C2102   1.408       .  A
C2101      H2110   1.082       .  S
C2102      C2105   1.369       .  A
O2103      C2104   1.328       .  A
C2104      C2105   1.394       .  A
C2105      H2111   1.082       .  S
O2106      C2107   1.333       .  A
C2107      C2108   1.389       .  A
C2108      H2112   1.082       .  S
C2113      C2118   1.379       .  A
C2113      C2114   1.411       .  A
C2113      O2119   1.327       .  A
C2114      C2115   1.411   1_545  A
C2114      H2125   1.082       .  S
C2115      C2124   1.371       .  A
C2115      C2116   1.380       .  A
C2116      C2117   1.397   1_565  A
C2116      O2122   1.314       .  A
C2117      C2118   1.397       .  A
C2117      H2126   1.083       .  S
C2118      C2121   1.352       .  A
O2119      C2120   1.335       .  A
C2120      C2121   1.390       .  A
C2121      H2127   1.082       .  S
O2122      C2123   1.328       .  A
C2123      C2124   1.395       .  A
C2124      H2128   1.082       .  S
C2129      C2134   1.380       .  A
C2129      C2130   1.406       .  A
C2129      O2135   1.321       .  A
C2130      C2131   1.405       .  A
C2130      H2141   1.082       .  S
C2131      C2140   1.365       .  A
C2131      C2132   1.379       .  A
C2132      C2133   1.406       .  A
C2132      O2138   1.321       .  A
C2133      C2134   1.405       .  A
C2133      H2142   1.082       .  S
C2134      C2137   1.365       .  A
O2135      C2136   1.333       .  A
C2136      C2137   1.393       .  A
C2137      H2143   1.082       .  S
O2138      C2139   1.333       .  A
C2139      C2140   1.394       .  A
C2140      H2144   1.082       .  S
C2145      C2150   1.380       .  A
C2145      C2146   1.411       .  A
C2145      O2151   1.325       .  A
C2146      C2147   1.410   1_545  A
C2146      H2157   1.082       .  S
C2147      C2156   1.372       .  A
C2147      C2148   1.381       .  A
C2148      C2149   1.394   1_565  A
C2148      O2154   1.310       .  A
C2149      C2150   1.393       .  A
C2149      H2158   1.083       .  S
C2150      C2153   1.349       .  A
O2151      C2152   1.334       .  A
C2152      C2153   1.387       .  A
C2153      H2159   1.082       .  S
O2154      C2155   1.327       .  A
C2155      C2156   1.395       .  A
C2156      H2160   1.082       .  S
C2161      C2166   1.379       .  A
C2161      C2162   1.411       .  A
C2161      O2167   1.326       .  A
C2162      C2163   1.410       .  A
C2162      H2173   1.082       .  S
C2163      C2172   1.373       .  A
C2163      C2164   1.380       .  A
C2164      C2165   1.400       .  A
C2164      O2170   1.315       .  A
C2165      C2166   1.399       .  A
C2165      H2174   1.083       .  S
C2166      C2169   1.358       .  A
O2167      C2168   1.335       .  A
C2168      C2169   1.391       .  A
C2169      H2175   1.082       .  S
O2170      C2171   1.329       .  A
C2171      C2172   1.395       .  A
C2172      H2176   1.082       .  S
C2177      C2182   1.380       .  A
C2177      C2178   1.395       .  A
C2177      O2183   1.311       .  A
C2178      C2179   1.394       .  A
C2178      H2189   1.082       .  S
C2179      C2188   1.351       .  A
C2179      C2180   1.378       .  A
C2180      C2181   1.416       .  A
C2180      O2186   1.330       .  A
C2181      C2182   1.415       .  A
C2181      H2190   1.082       .  S
C2182      C2185   1.377       .  A
O2183      C2184   1.327       .  A
C2184      C2185   1.398       .  A
C2185      H2191   1.082       .  S
O2186      C2187   1.338       .  A
C2187      C2188   1.389       .  A
C2188      H2192   1.081       .  S
C2193      C2198   1.380       .  A
C2193      C2194   1.396   1_655  A
C2193      O2199   1.312       .  A
C2194      C2195   1.395       .  A
C2194      H2205   1.083       .  S
C2195      C2204   1.352       .  A
C2195      C2196   1.379       .  A
C2196      C2197   1.415       .  A
C2196      O2202   1.329       .  A
C2197      C2198   1.414   1_455  A
C2197      H2206   1.082       .  S
C2198      C2201   1.376       .  A
O2199      C2200   1.328       .  A
C2200      C2201   1.398       .  A
C2201      H2207   1.082       .  S
O2202      C2203   1.337       .  A
C2203      C2204   1.390       .  A
C2204      H2208   1.082       .  S
C2209      C2214   1.379       .  A
C2209      C2210   1.407       .  A
C2209      O2215   1.323       .  A
C2210      C2211   1.407       .  A
C2210      H2221   1.082       .  S
C2211      C2220   1.365       .  A
C2211      C2212   1.379       .  A
C2212      C2213   1.408       .  A
C2212      O2218   1.325       .  A
C2213      C2214   1.408       .  A
C2213      H2222   1.082       .  S
C2214      C2217   1.366       .  A
O2215      C2216   1.334       .  A
C2216      C2217   1.396       .  A
C2217      H2223   1.082       .  S
O2218      C2219   1.334       .  A
C2219      C2220   1.394       .  A
C2220      H2224   1.082       .  S
C2225      C2230   1.378       .  A
C2225      C2226   1.417   1_655  A
C2225      O2231   1.332       .  A
C2226      C2227   1.417       .  A
C2226      H2237   1.082       .  S
C2227      C2236   1.378       .  A
C2227      C2228   1.380       .  A
C2228      C2229   1.394       .  A
C2228      O2234   1.312       .  A
C2229      C2230   1.394   1_455  A
C2229      H2238   1.083       .  S
C2230      C2233   1.350       .  A
O2231      C2232   1.339       .  A
C2232      C2233   1.389       .  A
C2233      H2239   1.082       .  S
O2234      C2235   1.326       .  A
C2235      C2236   1.399       .  A
C2236      H2240   1.082       .  S
C2241      C2246   1.379       .  A
C2241      C2242   1.412       .  A
C2241      O2247   1.327       .  A
C2242      C2243   1.412       .  A
C2242      H2253   1.082       .  S
C2243      C2252   1.373       .  A
C2243      C2244   1.380       .  A
C2244      C2245   1.397       .  A
C2244      O2250   1.313       .  A
C2245      C2246   1.397       .  A
C2245      H2254   1.083       .  S
C2246      C2249   1.354       .  A
O2247      C2248   1.336       .  A
C2248      C2249   1.390       .  A
C2249      H2255   1.082       .  S
O2250      C2251   1.328       .  A
C2251      C2252   1.396       .  A
C2252      H2256   1.082       .  S
C2257      C2262   1.378       .  A
C2257      C2258   1.407       .  A
C2257      O2263   1.323       .  A
C2258      C2259   1.408       .  A
C2258      H2269   1.082       .  S
C2259      C2268   1.364       .  A
C2259      C2260   1.378       .  A
C2260      C2261   1.400       .  A
C2260      O2266   1.317       .  A
C2261      C2262   1.401       .  A
C2261      H2270   1.083       .  S
C2262      C2265   1.355       .  A
O2263      C2264   1.335       .  A
C2264      C2265   1.397       .  A
C2265      H2271   1.081       .  S
O2266      C2267   1.331       .  A
C2267      C2268   1.399       .  A
C2268      H2272   1.081       .  S
C2273      C2278   1.378       .  A
C2273      C2274   1.400       .  A
C2273      O2279   1.316       .  A
C2274      C2275   1.400       .  A
C2274      H2285   1.082       .  S
C2275      C2284   1.356       .  A
C2275      C2276   1.378       .  A
C2276      C2277   1.407       .  A
C2276      O2282   1.322       .  A
C2277      C2278   1.407       .  A
C2277      H2286   1.082       .  S
C2278      C2281   1.365       .  A
O2279      C2280   1.331       .  A
C2280      C2281   1.398       .  A
C2281      H2287   1.081       .  S
O2282      C2283   1.335       .  A
C2283      C2284   1.396       .  A
C2284      H2288   1.081       .  S
C2289      C2294   1.377       .  A
C2289      C2290   1.408       .  A
C2289      O2295   1.323       .  A
C2290      C2291   1.408       .  A
C2290      H2301   1.082       .  S
C2291      C2300   1.366       .  A
C2291      C2292   1.378       .  A
C2292      C2293   1.402       .  A
C2292      O2298   1.318       .  A
C2293      C2294   1.402       .  A
C2293      H2302   1.082       .  S
C2294      C2297   1.360       .  A
O2295      C2296   1.336       .  A
C2296      C2297   1.397       .  A
C2297      H2303   1.081       .  S
O2298      C2299   1.332       .  A
C2299      C2300   1.399       .  A
C2300      H2304   1.081       .  S
C2305      C2310   1.379       .  A
C2305      C2306   1.404       .  A
C2305      O2311   1.321       .  A
C2306      C2307   1.404       .  A
C2306      H2317   1.082       .  S
C2307      C2316   1.362       .  A
C2307      C2308   1.380       .  A
C2308      C2309   1.406       .  A
C2308      O2314   1.322       .  A
C2309      C2310   1.406       .  A
C2309      H2318   1.082       .  S
C2310      C2313   1.363       .  A
O2311      C2312   1.332       .  A
C2312      C2313   1.395       .  A
C2313      H2319   1.082       .  S
O2314      C2315   1.333       .  A
C2315      C2316   1.392       .  A
C2316      H2320   1.082       .  S
C2321      C2326   1.378       .  A
C2321      C2322   1.406       .  A
C2321      O2327   1.321       .  A
C2322      C2323   1.406       .  A
C2322      H2333   1.083       .  S
C2323      C2332   1.365       .  A
C2323      C2324   1.378       .  A
C2324      C2325   1.403       .  A
C2324      O2330   1.318       .  A
C2325      C2326   1.402       .  A
C2325      H2334   1.083       .  S
C2326      C2329   1.360       .  A
O2327      C2328   1.335       .  A
C2328      C2329   1.397       .  A
C2329      H2335   1.082       .  S
O2330      C2331   1.333       .  A
C2331      C2332   1.398       .  A
C2332      H2336   1.081       .  S
C2337      C2342   1.379       .  A
C2337      C2338   1.406       .  A
C2337      O2343   1.321       .  A
C2338      C2339   1.406       .  A
C2338      H2349   1.082       .  S
C2339      C2348   1.365       .  A
C2339      C2340   1.380       .  A
C2340      C2341   1.404       .  A
C2340      O2346   1.320       .  A
C2341      C2342   1.404       .  A
C2341      H2350   1.082       .  S
C2342      C2345   1.363       .  A
O2343      C2344   1.334       .  A
C2344      C2345   1.394       .  A
C2345      H2351   1.082       .  S
O2346      C2347   1.332       .  A
C2347      C2348   1.393       .  A
C2348      H2352   1.082       .  S
C2353      C2358   1.378       .  A
C2353      C2354   1.406       .  A
C2353      O2359   1.319       .  A
C2354      C2355   1.405       .  A
C2354      H2365   1.083       .  S
C2355      C2364   1.364       .  A
C2355      C2356   1.378       .  A
C2356      C2357   1.406       .  A
C2356      O2362   1.320       .  A
C2357      C2358   1.405       .  A
C2357      H2366   1.083       .  S
C2358      C2361   1.364       .  A
O2359      C2360   1.334       .  A
C2360      C2361   1.397       .  A
C2361      H2367   1.081       .  S
O2362      C2363   1.334       .  A
C2363      C2364   1.397       .  A
C2364      H2368   1.081       .  S
C2369      C2374   1.378       .  A
C2369      C2370   1.404       .  A
C2369      O2375   1.320       .  A
C2370      C2371   1.404       .  A
C2370      H2381   1.083       .  S
C2371      C2380   1.360       .  A
C2371      C2372   1.378       .  A
C2372      C2373   1.406       .  A
C2372      O2378   1.322       .  A
C2373      C2374   1.407       .  A
C2373      H2382   1.083       .  S
C2374      C2377   1.364       .  A
O2375      C2376   1.334       .  A
C2376      C2377   1.399       .  A
C2377      H2383   1.081       .  S
O2378      C2379   1.334       .  A
C2379      C2380   1.398       .  A
C2380      H2384   1.082       .  S
C2385      C2390   1.380       .  A
C2385      C2386   1.405       .  A
C2385      O2391   1.320       .  A
C2386      C2387   1.404       .  A
C2386      H2397   1.082       .  S
C2387      C2396   1.363       .  A
C2387      C2388   1.380       .  A
C2388      C2389   1.405       .  A
C2388      O2394   1.320       .  A
C2389      C2390   1.404       .  A
C2389      H2398   1.082       .  S
C2390      C2393   1.364       .  A
O2391      C2392   1.332       .  A
C2392      C2393   1.392       .  A
C2393      H2399   1.082       .  S
O2394      C2395   1.332       .  A
C2395      C2396   1.394       .  A
C2396      H2400   1.082       .  S
C2401      C2406   1.379       .  A
C2401      C2402   1.408       .  A
C2401      O2407   1.324       .  A
C2402      C2403   1.408       .  A
C2402      H2413   1.082       .  S
C2403      C2412   1.366       .  A
C2403      C2404   1.379       .  A
C2404      C2405   1.406       .  A
C2404      O2410   1.322       .  A
C2405      C2406   1.406       .  A
C2405      H2414   1.082       .  S
C2406      C2409   1.364       .  A
O2407      C2408   1.334       .  A
C2408      C2409   1.393       .  A
C2409      H2415   1.082       .  S
O2410      C2411   1.333       .  A
C2411      C2412   1.397       .  A
C2412      H2416   1.082       .  S
C2417      C2422   1.380       .  A
C2417      C2418   1.399       .  A
C2417      O2423   1.314       .  A
C2418      C2419   1.398       .  A
C2418      H2429   1.083       .  S
C2419      C2428   1.356       .  A
C2419      C2420   1.379       .  A
C2420      C2421   1.412       .  A
C2420      O2426   1.326       .  A
C2421      C2422   1.411       .  A
C2421      H2430   1.082       .  S
C2422      C2425   1.374       .  A
O2423      C2424   1.330       .  A
C2424      C2425   1.396       .  A
C2425      H2431   1.082       .  S
O2426      C2427   1.335       .  A
C2427      C2428   1.391       .  A
C2428      H2432   1.082       .  S
C2433      C2438   1.380       .  A
C2433      C2434   1.402       .  A
C2433      O2439   1.318       .  A
C2434      C2435   1.401       .  A
C2434      H2445   1.082       .  S
C2435      C2444   1.359       .  A
C2435      C2436   1.379       .  A
C2436      C2437   1.406       .  A
C2436      O2442   1.321       .  A
C2437      C2438   1.406       .  A
C2437      H2446   1.082       .  S
C2438      C2441   1.365       .  A
O2439      C2440   1.330       .  A
C2440      C2441   1.393       .  A
C2441      H2447   1.082       .  S
O2442      C2443   1.334       .  A
C2443      C2444   1.393       .  A
C2444      H2448   1.082       .  S
C2449      C2454   1.381       .  A
C2449      C2450   1.395   1_565  A
C2449      O2455   1.311       .  A
C2450      C2451   1.394       .  A
C2450      H2461   1.083       .  S
C2451      C2460   1.352       .  A
C2451      C2452   1.380       .  A
C2452      C2453   1.411       .  A
C2452      O2458   1.326       .  A
C2453      C2454   1.410   1_545  A
C2453      H2462   1.083       .  S
C2454      C2457   1.372       .  A
O2455      C2456   1.327       .  A
C2456      C2457   1.395       .  A
C2457      H2463   1.082       .  S
O2458      C2459   1.335       .  A
C2459      C2460   1.389       .  A
C2460      H2464   1.082       .  S
C2465      C2470   1.380       .  A
C2465      C2466   1.402       .  A
C2465      O2471   1.318       .  A
C2466      C2467   1.402       .  A
C2466      H2477   1.082       .  S
C2467      C2476   1.360       .  A
C2467      C2468   1.379       .  A
C2468      C2469   1.404       .  A
C2468      O2474   1.319       .  A
C2469      C2470   1.403       .  A
C2469      H2478   1.082       .  S
C2470      C2473   1.362       .  A
O2471      C2472   1.330       .  A
C2472      C2473   1.391       .  A
C2473      H2479   1.082       .  S
O2474      C2475   1.332       .  A
C2475      C2476   1.393       .  A
C2476      H2480   1.082       .  S
C2481      C2486   1.381       .  A
C2481      C2482   1.397       .  A
C2481      O2487   1.313       .  A
C2482      C2483   1.396   1_545  A
C2482      H2493   1.082       .  S
C2483      C2492   1.353       .  A
C2483      C2484   1.380       .  A
C2484      C2485   1.409   1_565  A
C2484      O2490   1.324       .  A
C2485      C2486   1.409       .  A
C2485      H2494   1.082   1_545  S
C2486      C2489   1.369       .  A
O2487      C2488   1.328       .  A
C2488      C2489   1.394       .  A
C2489      H2495   1.082       .  S
O2490      C2491   1.334       .  A
C2491      C2492   1.389       .  A
C2492      H2496   1.082       .  S
C2497      C2502   1.379       .  A
C2497      C2498   1.411       .  A
C2497      O2503   1.326       .  A
C2498      C2499   1.411       .  A
C2498      H2509   1.082       .  S
C2499      C2508   1.372       .  A
C2499      C2500   1.380       .  A
C2500      C2501   1.396       .  A
C2500      O2506   1.311       .  A
C2501      C2502   1.394       .  A
C2501      H2510   1.082       .  S
C2502      C2505   1.351       .  A
O2503      C2504   1.335       .  A
C2504      C2505   1.388       .  A
C2505      H2511   1.082       .  S
O2506      C2507   1.327       .  A
C2507      C2508   1.396       .  A
C2508      H2512   1.082       .  S
C2513      C2518   1.379       .  A
C2513      C2514   1.406       .  A
C2513      O2519   1.320       .  A
C2514      C2515   1.405       .  A
C2514      H2525   1.083       .  S
C2515      C2524   1.366       .  A
C2515      C2516   1.379       .  A
C2516      C2517   1.408       .  A
C2516      O2522   1.323       .  A
C2517      C2518   1.407       .  A
C2517      H2526   1.082       .  S
C2518      C2521   1.368       .  A
O2519      C2520   1.334       .  A
C2520      C2521   1.395       .  A
C2521      H2527   1.082       .  S
O2522      C2523   1.334       .  A
C2523      C2524   1.393       .  A
C2524      H2528   1.082       .  S
C2529      C2534   1.380       .  A
C2529      C2530   1.396       .  A
C2529      O2535   1.313       .  A
C2530      C2531   1.395       .  A
C2530      H2541   1.083       .  S
C2531      C2540   1.352       .  A
C2531      C2532   1.379       .  A
C2532      C2533   1.413       .  A
C2532      O2538   1.328       .  A
C2533      C2534   1.413       .  A
C2533      H2542   1.082       .  S
C2534      C2537   1.373       .  A
O2535      C2536   1.328       .  A
C2536      C2537   1.397       .  A
C2537      H2543   1.082       .  S
O2538      C2539   1.336       .  A
C2539      C2540   1.389       .  A
C2540      H2544   1.082       .  S
C2545      C2550   1.381       .  A
C2545      C2546   1.395       .  A
C2545      O2551   1.312       .  A
C2546      C2547   1.395   1_565  A
C2546      H2557   1.083       .  S
C2547      C2556   1.352       .  A
C2547      C2548   1.379       .  A
C2548      C2549   1.413       .  A
C2548      O2554   1.327       .  A
C2549      C2550   1.412   1_545  A
C2549      H2558   1.083       .  S
C2550      C2553   1.373       .  A
O2551      C2552   1.327       .  A
C2552      C2553   1.396       .  A
C2553      H2559   1.082       .  S
O2554      C2555   1.336       .  A
C2555      C2556   1.388       .  A
C2556      H2560   1.082       .  S
C2561      C2566   1.380       .  A
C2561      C2562   1.404       .  A
C2561      O2567   1.320       .  A
C2562      C2563   1.404       .  A
C2562      H2573   1.082       .  S
C2563      C2572   1.361       .  A
C2563      C2564   1.379       .  A
C2564      C2565   1.405       .  A
C2564      O2570   1.321       .  A
C2565      C2566   1.405       .  A
C2565      H2574   1.082       .  S
C2566      C2569   1.363       .  A
O2567      C2568   1.332       .  A
C2568      C2569   1.392       .  A
C2569      H2575   1.082       .  S
O2570      C2571   1.332       .  A
C2571      C2572   1.395       .  A
C2572      H2576   1.082       .  S
C2577      C2582   1.380       .  A
C2577      C2578   1.398       .  A
C2577      O2583   1.314       .  A
C2578      C2579   1.398   1_565  A
C2578      H2589   1.082       .  S
C2579      C2588   1.355       .  A
C2579      C2580   1.379       .  A
C2580      C2581   1.411       .  A
C2580      O2586   1.326       .  A
C2581      C2582   1.411   1_545  A
C2581      H2590   1.082       .  S
C2582      C2585   1.371       .  A
O2583      C2584   1.328       .  A
C2584      C2585   1.396       .  A
C2585      H2591   1.082       .  S
O2586      C2587   1.335       .  A
C2587      C2588   1.390       .  A
C2588      H2592   1.082       .  S
C2593      C2598   1.380       .  A
C2593      C2594   1.395       .  A
C2593      O2599   1.312       .  A
C2594      C2595   1.395       .  A
C2594      H2605   1.083       .  S
C2595      C2604   1.351       .  A
C2595      C2596   1.379       .  A
C2596      C2597   1.413       .  A
C2596      O2602   1.328       .  A
C2597      C2598   1.413       .  A
C2597      H2606   1.082       .  S
C2598      C2601   1.374       .  A
O2599      C2600   1.327       .  A
C2600      C2601   1.397       .  A
C2601      H2607   1.082       .  S
O2602      C2603   1.336       .  A
C2603      C2604   1.388       .  A
C2604      H2608   1.082       .  S
C2609      C2614   1.378       .  A
C2609      C2610   1.407       .  A
C2609      O2615   1.322       .  A
C2610      C2611   1.407       .  A
C2610      H2621   1.082       .  S
C2611      C2620   1.364       .  A
C2611      C2612   1.378       .  A
C2612      C2613   1.406       .  A
C2612      O2618   1.322       .  A
C2613      C2614   1.406       .  A
C2613      H2622   1.082       .  S
C2614      C2617   1.364       .  A
O2615      C2616   1.335       .  A
C2616      C2617   1.398       .  A
C2617      H2623   1.081       .  S
O2618      C2619   1.335       .  A
C2619      C2620   1.399       .  A
C2620      H2624   1.082       .  S
C2625      C2630   1.378       .  A
C2625      C2626   1.409       .  A
C2625      O2631   1.323       .  A
C2626      C2627   1.408       .  A
C2626      H2637   1.082       .  S
C2627      C2636   1.367       .  A
C2627      C2628   1.378       .  A
C2628      C2629   1.403       .  A
C2628      O2634   1.318       .  A
C2629      C2630   1.402       .  A
C2629      H2638   1.082       .  S
C2630      C2633   1.361       .  A
O2631      C2632   1.336       .  A
C2632      C2633   1.396       .  A
C2633      H2639   1.081       .  S
O2634      C2635   1.332       .  A
C2635      C2636   1.399       .  A
C2636      H2640   1.081       .  S
C2641      C2646   1.378       .  A
C2641      C2642   1.403       .  A
C2641      O2647   1.320       .  A
C2642      C2643   1.403       .  A
C2642      H2653   1.083       .  S
C2643      C2652   1.360       .  A
C2643      C2644   1.378       .  A
C2644      C2645   1.405       .  A
C2644      O2650   1.321       .  A
C2645      C2646   1.406       .  A
C2645      H2654   1.083       .  S
C2646      C2649   1.362       .  A
O2647      C2648   1.333       .  A
C2648      C2649   1.399       .  A
C2649      H2655   1.081       .  S
O2650      C2651   1.335       .  A
C2651      C2652   1.397       .  A
C2652      H2656   1.081       .  S
C2657      C2662   1.378       .  A
C2657      C2658   1.407       .  A
C2657      O2663   1.321       .  A
C2658      C2659   1.407       .  A
C2658      H2669   1.082       .  S
C2659      C2668   1.367       .  A
C2659      C2660   1.378       .  A
C2660      C2661   1.405       .  A
C2660      O2666   1.319       .  A
C2661      C2662   1.404       .  A
C2661      H2670   1.083       .  S
C2662      C2665   1.363       .  A
O2663      C2664   1.335       .  A
C2664      C2665   1.397       .  A
C2665      H2671   1.081       .  S
O2666      C2667   1.334       .  A
C2667      C2668   1.398       .  A
C2668      H2672   1.081       .  S
C2673      C2678   1.379       .  A
C2673      C2674   1.405       .  A
C2673      O2679   1.321       .  A
C2674      C2675   1.405       .  A
C2674      H2685   1.082       .  S
C2675      C2684   1.362       .  A
C2675      C2676   1.380       .  A
C2676      C2677   1.404       .  A
C2676      O2682   1.320       .  A
C2677      C2678   1.404       .  A
C2677      H2686   1.081       .  S
C2678      C2681   1.361       .  A
O2679      C2680   1.333       .  A
C2680      C2681   1.394       .  A
C2681      H2687   1.082       .  S
O2682      C2683   1.331       .  A
C2683      C2684   1.393       .  A
C2684      H2688   1.082       .  S
C2689      C2694   1.378       .  A
C2689      C2690   1.404       .  A
C2689      O2695   1.318       .  A
C2690      C2691   1.403       .  A
C2690      H2701   1.082       .  S
C2691      C2700   1.362       .  A
C2691      C2692   1.378       .  A
C2692      C2693   1.406       .  A
C2692      O2698   1.320       .  A
C2693      C2694   1.405       .  A
C2693      H2702   1.082       .  S
C2694      C2697   1.365       .  A
O2695      C2696   1.333       .  A
C2696      C2697   1.397       .  A
C2697      H2703   1.081       .  S
O2698      C2699   1.335       .  A
C2699      C2700   1.397       .  A
C2700      H2704   1.081       .  S
C2705      C2710   1.378       .  A
C2705      C2706   1.405       .  A
C2705      O2711   1.320       .  A
C2706      C2707   1.405       .  A
C2706      H2717   1.083       .  S
C2707      C2716   1.362       .  A
C2707      C2708   1.379       .  A
C2708      C2709   1.401       .  A
C2708      O2714   1.318       .  A
C2709      C2710   1.401       .  A
C2709      H2718   1.083       .  S
C2710      C2713   1.358       .  A
O2711      C2712   1.334       .  A
C2712      C2713   1.396       .  A
C2713      H2719   1.081       .  S
O2714      C2715   1.332       .  A
C2715      C2716   1.398       .  A
C2716      H2720   1.082       .  S
C2721      C2726   1.380       .  A
C2721      C2722   1.403       .  A
C2721      O2727   1.320       .  A
C2722      C2723   1.403       .  A
C2722      H2733   1.082       .  S
C2723      C2732   1.362       .  A
C2723      C2724   1.380       .  A
C2724      C2725   1.405       .  A
C2724      O2730   1.321       .  A
C2725      C2726   1.404       .  A
C2725      H2734   1.082       .  S
C2726      C2729   1.362       .  A
O2727      C2728   1.332       .  A
C2728      C2729   1.395       .  A
C2729      H2735   1.082       .  S
O2730      C2731   1.332       .  A
C2731      C2732   1.392       .  A
C2732      H2736   1.082       .  S
C2737      C2742   1.380       .  A
C2737      C2738   1.406       .  A
C2737      O2743   1.321       .  A
C2738      C2739   1.405       .  A
C2738      H2749   1.082       .  S
C2739      C2748   1.366       .  A
C2739      C2740   1.379       .  A
C2740      C2741   1.408       .  A
C2740      O2746   1.322       .  A
C2741      C2742   1.407       .  A
C2741      H2750   1.082       .  S
C2742      C2745   1.367       .  A
O2743      C2744   1.332       .  A
C2744      C2745   1.394       .  A
C2745      H2751   1.082       .  S
O2746      C2747   1.334       .  A
C2747      C2748   1.394       .  A
C2748      H2752   1.082       .  S
C2753      C2758   1.381       .  A
C2753      C2754   1.395       .  A
C2753      O2759   1.312       .  A
C2754      C2755   1.395       .  A
C2754      H2765   1.083       .  S
C2755      C2764   1.350       .  A
C2755      C2756   1.379       .  A
C2756      C2757   1.413       .  A
C2756      O2762   1.328       .  A
C2757      C2758   1.413       .  A
C2757      H2766   1.082       .  S
C2758      C2761   1.372       .  A
O2759      C2760   1.327       .  A
C2760      C2761   1.396       .  A
C2761      H2767   1.082       .  S
O2762      C2763   1.336       .  A
C2763      C2764   1.389       .  A
C2764      H2768   1.082       .  S
C2769      C2774   1.380       .  A
C2769      C2770   1.406       .  A
C2769      O2775   1.322       .  A
C2770      C2771   1.406       .  A
C2770      H2781   1.082       .  S
C2771      C2780   1.364       .  A
C2771      C2772   1.379       .  A
C2772      C2773   1.404       .  A
C2772      O2778   1.320       .  A
C2773      C2774   1.403       .  A
C2773      H2782   1.082       .  S
C2774      C2777   1.362       .  A
O2775      C2776   1.332       .  A
C2776      C2777   1.392       .  A
C2777      H2783   1.082       .  S
O2778      C2779   1.332       .  A
C2779      C2780   1.396       .  A
C2780      H2784   1.082       .  S
C2785      C2790   1.380       .  A
C2785      C2786   1.397       .  A
C2785      O2791   1.312       .  A
C2786      C2787   1.395   1_556  A
C2786      H2797   1.082       .  S
C2787      C2796   1.353       .  A
C2787      C2788   1.380       .  A
C2788      C2789   1.411   1_554  A
C2788      O2794   1.324       .  A
C2789      C2790   1.410       .  A
C2789      H2798   1.082       .  S
C2790      C2793   1.371       .  A
O2791      C2792   1.327       .  A
C2792      C2793   1.395       .  A
C2793      H2799   1.082       .  S
O2794      C2795   1.334       .  A
C2795      C2796   1.389       .  A
C2796      H2800   1.082       .  S
C2801      C2806   1.379       .  A
C2801      C2802   1.405       .  A
C2801      O2807   1.320       .  A
C2802      C2803   1.404       .  A
C2802      H2813   1.083       .  S
C2803      C2812   1.363       .  A
C2803      C2804   1.380       .  A
C2804      C2805   1.405       .  A
C2804      O2810   1.321       .  A
C2805      C2806   1.405       .  A
C2805      H2814   1.083       .  S
C2806      C2809   1.364       .  A
O2807      C2808   1.333       .  A
C2808      C2809   1.395       .  A
C2809      H2815   1.082       .  S
O2810      C2811   1.332       .  A
C2811      C2812   1.392       .  A
C2812      H2816   1.082       .  S
C2817      C2822   1.380       .  A
C2817      C2818   1.398       .  A
C2817      O2823   1.313       .  A
C2818      C2819   1.397   1_556  A
C2818      H2829   1.082       .  S
C2819      C2828   1.354       .  A
C2819      C2820   1.379       .  A
C2820      C2821   1.411   1_554  A
C2820      O2826   1.326       .  A
C2821      C2822   1.410       .  A
C2821      H2830   1.082       .  S
C2822      C2825   1.372       .  A
O2823      C2824   1.328       .  A
C2824      C2825   1.395       .  A
C2825      H2831   1.082       .  S
O2826      C2827   1.335       .  A
C2827      C2828   1.390       .  A
C2828      H2832   1.082       .  S
C2833      C2838   1.380       .  A
C2833      C2834   1.410       .  A
C2833      O2839   1.325       .  A
C2834      C2835   1.410       .  A
C2834      H2845   1.082       .  S
C2835      C2844   1.371       .  A
C2835      C2836   1.381       .  A
C2836      C2837   1.396       .  A
C2836      O2842   1.312       .  A
C2837      C2838   1.395       .  A
C2837      H2846   1.082       .  S
C2838      C2841   1.352       .  A
O2839      C2840   1.334       .  A
C2840      C2841   1.387       .  A
C2841      H2847   1.082       .  S
O2842      C2843   1.326       .  A
C2843      C2844   1.395       .  A
C2844      H2848   1.082       .  S
C2849      C2854   1.379       .  A
C2849      C2850   1.405       .  A
C2849      O2855   1.321       .  A
C2850      C2851   1.405       .  A
C2850      H2861   1.082       .  S
C2851      C2860   1.363       .  A
C2851      C2852   1.380       .  A
C2852      C2853   1.405       .  A
C2852      O2858   1.321       .  A
C2853      C2854   1.404       .  A
C2853      H2862   1.082       .  S
C2854      C2857   1.362       .  A
O2855      C2856   1.333       .  A
C2856      C2857   1.393       .  A
C2857      H2863   1.082       .  S
O2858      C2859   1.332       .  A
C2859      C2860   1.393       .  A
C2860      H2864   1.082       .  S
C2865      C2870   1.379       .  A
C2865      C2866   1.405       .  A
C2865      O2871   1.320       .  A
C2866      C2867   1.404       .  A
C2866      H2877   1.082       .  S
C2867      C2876   1.364       .  A
C2867      C2868   1.380       .  A
C2868      C2869   1.408       .  A
C2868      O2874   1.323       .  A
C2869      C2870   1.407       .  A
C2869      H2878   1.082       .  S
C2870      C2873   1.366       .  A
O2871      C2872   1.333       .  A
C2872      C2873   1.396       .  A
C2873      H2879   1.082       .  S
O2874      C2875   1.333       .  A
C2875      C2876   1.392       .  A
C2876      H2880   1.082       .  S
C2881      C2886   1.380       .  A
C2881      C2882   1.397       .  A
C2881      O2887   1.313       .  A
C2882      C2883   1.396       .  A
C2882      H2893   1.083       .  S
C2883      C2892   1.354       .  A
C2883      C2884   1.379       .  A
C2884      C2885   1.414       .  A
C2884      O2890   1.328       .  A
C2885      C2886   1.413       .  A
C2885      H2894   1.082       .  S
C2886      C2889   1.375       .  A
O2887      C2888   1.327       .  A
C2888      C2889   1.398       .  A
C2889      H2895   1.082       .  S
O2890      C2891   1.337       .  A
C2891      C2892   1.389       .  A
C2892      H2896   1.082       .  S
C2897      C2902   1.380       .  A
C2897      C2898   1.396   1_554  A
C2897      O2903   1.314       .  A
C2898      C2899   1.396       .  A
C2898      H2909   1.082       .  S
C2899      C2908   1.353       .  A
C2899      C2900   1.378       .  A
C2900      C2901   1.418       .  A
C2900      O2906   1.332       .  A
C2901      C2902   1.418   1_556  A
C2901      H2910   1.082       .  S
C2902      C2905   1.379       .  A
O2903      C2904   1.328       .  A
C2904      C2905   1.400       .  A
C2905      H2911   1.082       .  S
O2906      C2907   1.339       .  A
C2907      C2908   1.389       .  A
C2908      H2912   1.082       .  S
C2913      C2918   1.380       .  A
C2913      C2914   1.406       .  A
C2913      O2919   1.322       .  A
C2914      C2915   1.405       .  A
C2914      H2925   1.082       .  S
C2915      C2924   1.364       .  A
C2915      C2916   1.379       .  A
C2916      C2917   1.408       .  A
C2916      O2922   1.324       .  A
C2917      C2918   1.408       .  A
C2917      H2926   1.082       .  S
C2918      C2921   1.366       .  A
O2919      C2920   1.332       .  A
C2920      C2921   1.394       .  A
C2921      H2927   1.082       .  S
O2922      C2923   1.335       .  A
C2923      C2924   1.395       .  A
C2924      H2928   1.082       .  S
C2929      C2934   1.378   1_554  A
C2929      C2930   1.415   1_554  A
C2929      O2935   1.330       .  A
C2930      C2931   1.415       .  A
C2930      H2941   1.082       .  S
C2931      C2940   1.376       .  A
C2931      C2932   1.380       .  A
C2932      C2933   1.395       .  A
C2932      O2938   1.312       .  A
C2933      C2934   1.395       .  A
C2933      H2942   1.082       .  S
C2934      C2937   1.351   1_556  A
O2935      C2936   1.338       .  A
C2936      C2937   1.389       .  A
C2937      H2943   1.081       .  S
O2938      C2939   1.327       .  A
C2939      C2940   1.398       .  A
C2940      H2944   1.082       .  S
C2945      C2950   1.379       .  A
C2945      C2946   1.415       .  A
C2945      O2951   1.331       .  A
C2946      C2947   1.415       .  A
C2946      H2957   1.082       .  S
C2947      C2956   1.376       .  A
C2947      C2948   1.380       .  A
C2948      C2949   1.397       .  A
C2948      O2954   1.314       .  A
C2949      C2950   1.397       .  A
C2949      H2958   1.083       .  S
C2950      C2953   1.353       .  A
O2951      C2952   1.338       .  A
C2952      C2953   1.390       .  A
C2953      H2959   1.082       .  S
O2954      C2955   1.328       .  A
C2955      C2956   1.398       .  A
C2956      H2960   1.082       .  S
C2961      C2966   1.379       .  A
C2961      C2962   1.407       .  A
C2961      O2967   1.320       .  A
C2962      C2963   1.406       .  A
C2962      H2973   1.082       .  S
C2963      C2972   1.366       .  A
C2963      C2964   1.379       .  A
C2964      C2965   1.408       .  A
C2964      O2970   1.323       .  A
C2965      C2966   1.407       .  A
C2965      H2974   1.082       .  S
C2966      C2969   1.368       .  A
O2967      C2968   1.334       .  A
C2968      C2969   1.395       .  A
C2969      H2975   1.082       .  S
O2970      C2971   1.333       .  A
C2971      C2972   1.394       .  A
C2972      H2976   1.082       .  S
C2977      C2982   1.379       .  A
C2977      C2978   1.404       .  A
C2977      O2983   1.319       .  A
C2978      C2979   1.403       .  A
C2978      H2989   1.083       .  S
C2979      C2988   1.361       .  A
C2979      C2980   1.379       .  A
C2980      C2981   1.404       .  A
C2980      O2986   1.319       .  A
C2981      C2982   1.403       .  A
C2981      H2990   1.082       .  S
C2982      C2985   1.362       .  A
O2983      C2984   1.333       .  A
C2984      C2985   1.396       .  A
C2985      H2991   1.082       .  S
O2986      C2987   1.333       .  A
C2987      C2988   1.396       .  A
C2988      H2992   1.082       .  S
C2993      C2998   1.379       .  A
C2993      C2994   1.406       .  A
C2993      O2999   1.321       .  A
C2994      C2995   1.405       .  A
C2994      H3005   1.082       .  S
C2995      C3004   1.364       .  A
C2995      C2996   1.380       .  A
C2996      C2997   1.404       .  A
C2996      O3002   1.320       .  A
C2997      C2998   1.403       .  A
C2997      H3006   1.082       .  S
C2998      C3001   1.361       .  A
O2999      C3000   1.333       .  A
C3000      C3001   1.394       .  A
C3001      H3007   1.082       .  S
O3002      C3003   1.331       .  A
C3003      C3004   1.393       .  A
C3004      H3008   1.082       .  S
C3009      C3014   1.378       .  A
C3009      C3010   1.403       .  A
C3009      O3015   1.319       .  A
C3010      C3011   1.403       .  A
C3010      H3021   1.082       .  S
C3011      C3020   1.360       .  A
C3011      C3012   1.378       .  A
C3012      C3013   1.405       .  A
C3012      O3018   1.320       .  A
C3013      C3014   1.404       .  A
C3013      H3022   1.082       .  S
C3014      C3017   1.362       .  A
O3015      C3016   1.333       .  A
C3016      C3017   1.397       .  A
C3017      H3023   1.081       .  S
O3018      C3019   1.334       .  A
C3019      C3020   1.397       .  A
C3020      H3024   1.081       .  S
C3025      C3030   1.378       .  A
C3025      C3026   1.405       .  A
C3025      O3031   1.320       .  A
C3026      C3027   1.405       .  A
C3026      H3037   1.082       .  S
C3027      C3036   1.363       .  A
C3027      C3028   1.378       .  A
C3028      C3029   1.404       .  A
C3028      O3034   1.319       .  A
C3029      C3030   1.403       .  A
C3029      H3038   1.082       .  S
C3030      C3033   1.362       .  A
O3031      C3032   1.334       .  A
C3032      C3033   1.397       .  A
C3033      H3039   1.081       .  S
O3034      C3035   1.333       .  A
C3035      C3036   1.398       .  A
C3036      H3040   1.081       .  S
C3041      C3046   1.379       .  A
C3041      C3042   1.406       .  A
C3041      O3047   1.321       .  A
C3042      C3043   1.406       .  A
C3042      H3053   1.082       .  S
C3043      C3052   1.365       .  A
C3043      C3044   1.380       .  A
C3044      C3045   1.406       .  A
C3044      O3050   1.322       .  A
C3045      C3046   1.405       .  A
C3045      H3054   1.082       .  S
C3046      C3049   1.364       .  A
O3047      C3048   1.334       .  A
C3048      C3049   1.395       .  A
C3049      H3055   1.082       .  S
O3050      C3051   1.332       .  A
C3051      C3052   1.393       .  A
C3052      H3056   1.082       .  S
C3057      C3062   1.378       .  A
C3057      C3058   1.405       .  A
C3057      O3063   1.321       .  A
C3058      C3059   1.405       .  A
C3058      H3069   1.083       .  S
C3059      C3068   1.361       .  A
C3059      C3060   1.378       .  A
C3060      C3061   1.407       .  A
C3060      O3066   1.324       .  A
C3061      C3062   1.408       .  A
C3061      H3070   1.083       .  S
C3062      C3065   1.365       .  A
O3063      C3064   1.334       .  A
C3064      C3065   1.399       .  A
C3065      H3071   1.081       .  S
O3066      C3067   1.335       .  A
C3067      C3068   1.399       .  A
C3068      H3072   1.081       .  S
C3073      C3078   1.378       .  A
C3073      C3074   1.403       .  A
C3073      O3079   1.318       .  A
C3074      C3075   1.403       .  A
C3074      H3085   1.083       .  S
C3075      C3084   1.360       .  A
C3075      C3076   1.378       .  A
C3076      C3077   1.404       .  A
C3076      O3082   1.319       .  A
C3077      C3078   1.404       .  A
C3077      H3086   1.083       .  S
C3078      C3081   1.362       .  A
O3079      C3080   1.333       .  A
C3080      C3081   1.397       .  A
C3081      H3087   1.081       .  S
O3082      C3083   1.333       .  A
C3083      C3084   1.397       .  A
C3084      H3088   1.081       .  S
C3089      C3094   1.378       .  A
C3089      C3090   1.406       .  A
C3089      O3095   1.320       .  A
C3090      C3091   1.405       .  A
C3090      H3101   1.082       .  S
C3091      C3100   1.366       .  A
C3091      C3092   1.378       .  A
C3092      C3093   1.404       .  A
C3092      O3098   1.318       .  A
C3093      C3094   1.403       .  A
C3093      H3102   1.083       .  S
C3094      C3097   1.361       .  A
O3095      C3096   1.334       .  A
C3096      C3097   1.397       .  A
C3097      H3103   1.081       .  S
O3098      C3099   1.334       .  A
C3099      C3100   1.397       .  A
C3100      H3104   1.081       .  S
C3105      C3110   1.380       .  A
C3105      C3106   1.404       .  A
C3105      O3111   1.320       .  A
C3106      C3107   1.404       .  A
C3106      H3117   1.082       .  S
C3107      C3116   1.360       .  A
C3107      C3108   1.380       .  A
C3108      C3109   1.405       .  A
C3108      O3114   1.321       .  A
C3109      C3110   1.405       .  A
C3109      H3118   1.082       .  S
C3110      C3113   1.362       .  A
O3111      C3112   1.331       .  A
C3112      C3113   1.392       .  A
C3113      H3119   1.082       .  S
O3114      C3115   1.333       .  A
C3115      C3116   1.394       .  A
C3116      H3120   1.082       .  S
C3121      C3126   1.381       .  A
C3121      C3122   1.396       .  A
C3121      O3127   1.313       .  A
C3122      C3123   1.395       .  A
C3122      H3133   1.083       .  S
C3123      C3132   1.352       .  A
C3123      C3124   1.379       .  A
C3124      C3125   1.412       .  A
C3124      O3130   1.327       .  A
C3125      C3126   1.412       .  A
C3125      H3134   1.083       .  S
C3126      C3129   1.372       .  A
O3127      C3128   1.327       .  A
C3128      C3129   1.396       .  A
C3129      H3135   1.082       .  S
O3130      C3131   1.336       .  A
C3131      C3132   1.389       .  A
C3132      H3136   1.082       .  S
C3137      C3142   1.379       .  A
C3137      C3138   1.413   1_655  A
C3137      O3143   1.328       .  A
C3138      C3139   1.412       .  A
C3138      H3149   1.082       .  S
C3139      C3148   1.374       .  A
C3139      C3140   1.380       .  A
C3140      C3141   1.397       .  A
C3140      O3146   1.314       .  A
C3141      C3142   1.397   1_455  A
C3141      H3150   1.083       .  S
C3142      C3145   1.354       .  A
O3143      C3144   1.336       .  A
C3144      C3145   1.389       .  A
C3145      H3151   1.082       .  S
O3146      C3147   1.328       .  A
C3147      C3148   1.396       .  A
C3148      H3152   1.082       .  S
C3153      C3158   1.380       .  A
C3153      C3154   1.403       .  A
C3153      O3159   1.319       .  A
C3154      C3155   1.402       .  A
C3154      H3165   1.082       .  S
C3155      C3164   1.361       .  A
C3155      C3156   1.379       .  A
C3156      C3157   1.405       .  A
C3156      O3162   1.320       .  A
C3157      C3158   1.405       .  A
C3157      H3166   1.082       .  S
C3158      C3161   1.364       .  A
O3159      C3160   1.331       .  A
C3160      C3161   1.392       .  A
C3161      H3167   1.082       .  S
O3162      C3163   1.333       .  A
C3163      C3164   1.394       .  A
C3164      H3168   1.082       .  S
C3169      C3174   1.379       .  A
C3169      C3170   1.412       .  A
C3169      O3175   1.326       .  A
C3170      C3171   1.412   1_655  A
C3170      H3181   1.082       .  S
C3171      C3180   1.374       .  A
C3171      C3172   1.380       .  A
C3172      C3173   1.395       .  A
C3172      O3178   1.311       .  A
C3173      C3174   1.394   1_455  A
C3173      H3182   1.083       .  S
C3174      C3177   1.351       .  A
O3175      C3176   1.336       .  A
C3176      C3177   1.388       .  A
C3177      H3183   1.082       .  S
O3178      C3179   1.327       .  A
C3179      C3180   1.396       .  A
C3180      H3184   1.082       .  S
C3185      C3190   1.380       .  A
C3185      C3186   1.396       .  A
C3185      O3191   1.312       .  A
C3186      C3187   1.395       .  A
C3186      H3197   1.083       .  S
C3187      C3196   1.353       .  A
C3187      C3188   1.379       .  A
C3188      C3189   1.411       .  A
C3188      O3194   1.325       .  A
C3189      C3190   1.410       .  A
C3189      H3198   1.082       .  S
C3190      C3193   1.372       .  A
O3191      C3192   1.327       .  A
C3192      C3193   1.395       .  A
C3193      H3199   1.082       .  S
O3194      C3195   1.335       .  A
C3195      C3196   1.389       .  A
C3196      H3200   1.082       .  S
C3201      C3206   1.380       .  A
C3201      C3202   1.407       .  A
C3201      O3207   1.322       .  A
C3202      C3203   1.406       .  A
C3202      H3213   1.082       .  S
C3203      C3212   1.365       .  A
C3203      C3204   1.379       .  A
C3204      C3205   1.402       .  A
C3204      O3210   1.318       .  A
C3205      C3206   1.402       .  A
C3205      H3214   1.082       .  S
C3206      C3209   1.361       .  A
O3207      C3208   1.333       .  A
C3208      C3209   1.391       .  A
C3209      H3215   1.082       .  S
O3210      C3211   1.331       .  A
C3211      C3212   1.396       .  A
C3212      H3216   1.082       .  S
C3217      C3222   1.380       .  A
C3217      C3218   1.404       .  A
C3217      O3223   1.318       .  A
C3218      C3219   1.403       .  A
C3218      H3229   1.082       .  S
C3219      C3228   1.363       .  A
C3219      C3220   1.379       .  A
C3220      C3221   1.403       .  A
C3220      O3226   1.317       .  A
C3221      C3222   1.402       .  A
C3221      H3230   1.082       .  S
C3222      C3225   1.362       .  A
O3223      C3224   1.331       .  A
C3224      C3225   1.391       .  A
C3225      H3231   1.082       .  S
O3226      C3227   1.332       .  A
C3227      C3228   1.394       .  A
C3228      H3232   1.082       .  S
C3233      C3238   1.381       .  A
C3233      C3234   1.399       .  A
C3233      O3239   1.314       .  A
C3234      C3235   1.398       .  A
C3234      H3245   1.083       .  S
C3235      C3244   1.357       .  A
C3235      C3236   1.380       .  A
C3236      C3237   1.408       .  A
C3236      O3242   1.323       .  A
C3237      C3238   1.407       .  A
C3237      H3246   1.082       .  S
C3238      C3241   1.369       .  A
O3239      C3240   1.328       .  A
C3240      C3241   1.393       .  A
C3241      H3247   1.082       .  S
O3242      C3243   1.333       .  A
C3243      C3244   1.390       .  A
C3244      H3248   1.082       .  S
C3249      C3254   1.379       .  A
C3249      C3250   1.413       .  A
C3249      O3255   1.328       .  A
C3250      C3251   1.413   1_556  A
C3250      H3261   1.082       .  S
C3251      C3260   1.373       .  A
C3251      C3252   1.380       .  A
C3252      C3253   1.396   1_554  A
C3252      O3258   1.313       .  A
C3253      C3254   1.396       .  A
C3253      H3262   1.082       .  S
C3254      C3257   1.351       .  A
O3255      C3256   1.336       .  A
C3256      C3257   1.390       .  A
C3257      H3263   1.081       .  S
O3258      C3259   1.328       .  A
C3259      C3260   1.397       .  A
C3260      H3264   1.082       .  S
C3265      C3270   1.380       .  A
C3265      C3266   1.403       .  A
C3265      O3271   1.319       .  A
C3266      C3267   1.403       .  A
C3266      H3277   1.082       .  S
C3267      C3276   1.360       .  A
C3267      C3268   1.380       .  A
C3268      C3269   1.402       .  A
C3268      O3274   1.318       .  A
C3269      C3270   1.401       .  A
C3269      H3278   1.082       .  S
C3270      C3273   1.359       .  A
O3271      C3272   1.330       .  A
C3272      C3273   1.390       .  A
C3273      H3279   1.082       .  S
O3274      C3275   1.331       .  A
C3275      C3276   1.393       .  A
C3276      H3280   1.082       .  S
C3281      C3286   1.381       .  A
C3281      C3282   1.394       .  A
C3281      O3287   1.310       .  A
C3282      C3283   1.393   1_556  A
C3282      H3293   1.082       .  S
C3283      C3292   1.350       .  A
C3283      C3284   1.379       .  A
C3284      C3285   1.412   1_554  A
C3284      O3290   1.326       .  A
C3285      C3286   1.411       .  A
C3285      H3294   1.082       .  S
C3286      C3289   1.372       .  A
O3287      C3288   1.326       .  A
C3288      C3289   1.396       .  A
C3289      H3295   1.082       .  S
O3290      C3291   1.335       .  A
C3291      C3292   1.388       .  A
C3292      H3296   1.082       .  S
C3297      C3302   1.380       .  A
C3297      C3298   1.410       .  A
C3297      O3303   1.325       .  A
C3298      C3299   1.409       .  A
C3298      H3309   1.082       .  S
C3299      C3308   1.369       .  A
C3299      C3300   1.381       .  A
C3300      C3301   1.398       .  A
C3300      O3306   1.315       .  A
C3301      C3302   1.398       .  A
C3301      H3310   1.082       .  S
C3302      C3305   1.354       .  A
O3303      C3304   1.334       .  A
C3304      C3305   1.389       .  A
C3305      H3311   1.082       .  S
O3306      C3307   1.329       .  A
C3307      C3308   1.394       .  A
C3308      H3312   1.082       .  S
C3313      C3318   1.379       .  A
C3313      C3314   1.405       .  A
C3313      O3319   1.321       .  A
C3314      C3315   1.404       .  A
C3314      H3325   1.082       .  S
C3315      C3324   1.362       .  A
C3315      C3316   1.380       .  A
C3316      C3317   1.403       .  A
C3316      O3322   1.319       .  A
C3317      C3318   1.402       .  A
C3317      H3326   1.082       .  S
C3318      C3321   1.360       .  A
O3319      C3320   1.332       .  A
C3320      C3321   1.393       .  A
C3321      H3327   1.082       .  S
O3322      C3323   1.331       .  A
C3323      C3324   1.392       .  A
C3324      H3328   1.082       .  S
C3329      C3334   1.378       .  A
C3329      C3330   1.406       .  A
C3329      O3335   1.322       .  A
C3330      C3331   1.406       .  A
C3330      H3341   1.083       .  S
C3331      C3340   1.363       .  A
C3331      C3332   1.378       .  A
C3332      C3333   1.405       .  A
C3332      O3338   1.321       .  A
C3333      C3334   1.405       .  A
C3333      H3342   1.083       .  S
C3334      C3337   1.361       .  A
O3335      C3336   1.334       .  A
C3336      C3337   1.398       .  A
C3337      H3343   1.081       .  S
O3338      C3339   1.334       .  A
C3339      C3340   1.399       .  A
C3340      H3344   1.081       .  S
C3345      C3350   1.379       .  A
C3345      C3346   1.406       .  A
C3345      O3351   1.322       .  A
C3346      C3347   1.405       .  A
C3346      H3357   1.082       .  S
C3347      C3356   1.364       .  A
C3347      C3348   1.379       .  A
C3348      C3349   1.407       .  A
C3348      O3354   1.322       .  A
C3349      C3350   1.406       .  A
C3349      H3358   1.082       .  S
C3350      C3353   1.365       .  A
O3351      C3352   1.332       .  A
C3352      C3353   1.394       .  A
C3353      H3359   1.082       .  S
O3354      C3355   1.334       .  A
C3355      C3356   1.395       .  A
C3356      H3360   1.082       .  S
C3361      C3366   1.378       .  A
C3361      C3362   1.404       .  A
C3361      O3367   1.320       .  A
C3362      C3363   1.404       .  A
C3362      H3373   1.083       .  S
C3363      C3372   1.362       .  A
C3363      C3364   1.378       .  A
C3364      C3365   1.407       .  A
C3364      O3370   1.322       .  A
C3365      C3366   1.407       .  A
C3365      H3374   1.083       .  S
C3366      C3369   1.365       .  A
O3367      C3368   1.334       .  A
C3368      C3369   1.398       .  A
C3369      H3375   1.081       .  S
O3370      C3371   1.335       .  A
C3371      C3372   1.398       .  A
C3372      H3376   1.081       .  S
C3377      C3382   1.380       .  A
C3377      C3378   1.407       .  A
C3377      O3383   1.323       .  A
C3378      C3379   1.407       .  A
C3378      H3389   1.082       .  S
C3379      C3388   1.365       .  A
C3379      C3380   1.379       .  A
C3380      C3381   1.404       .  A
C3380      O3386   1.320       .  A
C3381      C3382   1.404       .  A
C3381      H3390   1.082       .  S
C3382      C3385   1.363       .  A
O3383      C3384   1.334       .  A
C3384      C3385   1.392       .  A
C3385      H3391   1.082       .  S
O3386      C3387   1.333       .  A
C3387      C3388   1.396       .  A
C3388      H3392   1.082       .  S
C3393      C3398   1.378       .  A
C3393      C3394   1.405       .  A
C3393      O3399   1.320       .  A
C3394      C3395   1.404       .  A
C3394      H3405   1.082       .  S
C3395      C3404   1.362       .  A
C3395      C3396   1.378       .  A
C3396      C3397   1.406       .  A
C3396      O3402   1.321       .  A
C3397      C3398   1.406       .  A
C3397      H3406   1.082       .  S
C3398      C3401   1.365       .  A
O3399      C3400   1.334       .  A
C3400      C3401   1.398       .  A
C3401      H3407   1.081       .  S
O3402      C3403   1.335       .  A
C3403      C3404   1.397       .  A
C3404      H3408   1.081       .  S
C3409      C3414   1.379       .  A
C3409      C3410   1.405       .  A
C3409      O3415   1.321       .  A
C3410      C3411   1.405       .  A
C3410      H3421   1.082       .  S
C3411      C3420   1.363       .  A
C3411      C3412   1.380       .  A
C3412      C3413   1.404       .  A
C3412      O3418   1.320       .  A
C3413      C3414   1.404       .  A
C3413      H3422   1.082       .  S
C3414      C3417   1.361       .  A
O3415      C3416   1.333       .  A
C3416      C3417   1.394       .  A
C3417      H3423   1.082       .  S
O3418      C3419   1.331       .  A
C3419      C3420   1.393       .  A
C3420      H3424   1.082       .  S
C3425      C3430   1.378       .  A
C3425      C3426   1.407       .  A
C3425      O3431   1.320       .  A
C3426      C3427   1.405       .  A
C3426      H3437   1.082       .  S
C3427      C3436   1.366       .  A
C3427      C3428   1.378       .  A
C3428      C3429   1.405       .  A
C3428      O3434   1.318       .  A
C3429      C3430   1.404       .  A
C3429      H3438   1.082       .  S
C3430      C3433   1.364       .  A
O3431      C3432   1.335       .  A
C3432      C3433   1.397       .  A
C3433      H3439   1.081       .  S
O3434      C3435   1.334       .  A
C3435      C3436   1.397       .  A
C3436      H3440   1.081       .  S
C3441      C3446   1.378       .  A
C3441      C3442   1.403       .  A
C3441      O3447   1.321       .  A
C3442      C3443   1.404       .  A
C3442      H3453   1.083       .  S
C3443      C3452   1.359       .  A
C3443      C3444   1.378       .  A
C3444      C3445   1.406       .  A
C3444      O3450   1.323       .  A
C3445      C3446   1.407       .  A
C3445      H3454   1.083       .  S
C3446      C3449   1.362       .  A
O3447      C3448   1.334       .  A
C3448      C3449   1.400       .  A
C3449      H3455   1.081       .  S
O3450      C3451   1.335       .  A
C3451      C3452   1.398       .  A
C3452      H3456   1.082       .  S
C3457      C3462   1.378       .  A
C3457      C3458   1.408       .  A
C3457      O3463   1.322       .  A
C3458      C3459   1.407       .  A
C3458      H3469   1.082       .  S
C3459      C3468   1.366       .  A
C3459      C3460   1.378       .  A
C3460      C3461   1.403       .  A
C3460      O3466   1.318       .  A
C3461      C3462   1.402       .  A
C3461      H3470   1.083       .  S
C3462      C3465   1.361       .  A
O3463      C3464   1.335       .  A
C3464      C3465   1.397       .  A
C3465      H3471   1.081       .  S
O3466      C3467   1.333       .  A
C3467      C3468   1.399       .  A
C3468      H3472   1.081       .  S
C3473      C3478   1.380       .  A
C3473      C3474   1.406       .  A
C3473      O3479   1.322       .  A
C3474      C3475   1.405       .  A
C3474      H3485   1.082       .  S
C3475      C3484   1.364       .  A
C3475      C3476   1.379       .  A
C3476      C3477   1.406       .  A
C3476      O3482   1.322       .  A
C3477      C3478   1.405       .  A
C3477      H3486   1.082       .  S
C3478      C3481   1.364       .  A
O3479      C3480   1.332       .  A
C3480      C3481   1.393       .  A
C3481      H3487   1.082       .  S
O3482      C3483   1.333       .  A
C3483      C3484   1.395       .  A
C3484      H3488   1.082       .  S
C3489      C3494   1.381       .  A
C3489      C3490   1.394       .  A
C3489      O3495   1.312       .  A
C3490      C3491   1.394       .  A
C3490      H3501   1.083       .  S
C3491      C3500   1.350       .  A
C3491      C3492   1.379       .  A
C3492      C3493   1.413       .  A
C3492      O3498   1.328       .  A
C3493      C3494   1.413       .  A
C3493      H3502   1.082       .  S
C3494      C3497   1.373       .  A
O3495      C3496   1.327       .  A
C3496      C3497   1.396       .  A
C3497      H3503   1.082       .  S
O3498      C3499   1.337       .  A
C3499      C3500   1.389       .  A
C3500      H3504   1.082       .  S
C3505      C3510   1.380       .  A
C3505      C3506   1.407       .  A
C3505      O3511   1.322       .  A
C3506      C3507   1.406       .  A
C3506      H3517   1.082       .  S
C3507      C3516   1.365       .  A
C3507      C3508   1.379       .  A
C3508      C3509   1.407       .  A
C3508      O3514   1.322       .  A
C3509      C3510   1.406       .  A
C3509      H3518   1.082       .  S
C3510      C3513   1.366       .  A
O3511      C3512   1.333       .  A
C3512      C3513   1.393       .  A
C3513      H3519   1.082       .  S
O3514      C3515   1.334       .  A
C3515      C3516   1.396       .  A
C3516      H3520   1.082       .  S
C3521      C3526   1.380       .  A
C3521      C3522   1.395   1_554  A
C3521      O3527   1.312       .  A
C3522      C3523   1.395       .  A
C3522      H3533   1.083       .  S
C3523      C3532   1.351       .  A
C3523      C3524   1.379       .  A
C3524      C3525   1.413       .  A
C3524      O3530   1.327       .  A
C3525      C3526   1.413   1_556  A
C3525      H3534   1.082       .  S
C3526      C3529   1.374       .  A
O3527      C3528   1.327       .  A
C3528      C3529   1.397       .  A
C3529      H3535   1.082       .  S
O3530      C3531   1.336       .  A
C3531      C3532   1.389       .  A
C3532      H3536   1.082       .  S
C3537      C3542   1.379       .  A
C3537      C3538   1.408       .  A
C3537      O3543   1.323       .  A
C3538      C3539   1.408       .  A
C3538      H3549   1.082       .  S
C3539      C3548   1.367       .  A
C3539      C3540   1.378       .  A
C3540      C3541   1.403       .  A
C3540      O3546   1.318       .  A
C3541      C3542   1.402       .  A
C3541      H3550   1.082       .  S
C3542      C3545   1.362       .  A
O3543      C3544   1.334       .  A
C3544      C3545   1.391       .  A
C3545      H3551   1.082       .  S
O3546      C3547   1.332       .  A
C3547      C3548   1.398       .  A
C3548      H3552   1.081       .  S
C3553      C3558   1.379       .  A
C3553      C3554   1.412   1_554  A
C3553      O3559   1.327       .  A
C3554      C3555   1.411       .  A
C3554      H3565   1.082       .  S
C3555      C3564   1.373       .  A
C3555      C3556   1.380       .  A
C3556      C3557   1.397       .  A
C3556      O3562   1.313       .  A
C3557      C3558   1.397   1_556  A
C3557      H3566   1.083       .  S
C3558      C3561   1.354       .  A
O3559      C3560   1.336       .  A
C3560      C3561   1.390       .  A
C3561      H3567   1.082       .  S
O3562      C3563   1.328       .  A
C3563      C3564   1.396       .  A
C3564      H3568   1.082       .  S
C3569      C3574   1.380       .  A
C3569      C3570   1.396       .  A
C3569      O3575   1.312       .  A
C3570      C3571   1.396       .  A
C3570      H3581   1.083       .  S
C3571      C3580   1.352       .  A
C3571      C3572   1.379       .  A
C3572      C3573   1.413       .  A
C3572      O3578   1.329       .  A
C3573      C3574   1.413       .  A
C3573      H3582   1.082       .  S
C3574      C3577   1.374       .  A
O3575      C3576   1.327       .  A
C3576      C3577   1.396       .  A
C3577      H3583   1.082       .  S
O3578      C3579   1.337       .  A
C3579      C3580   1.389       .  A
C3580      H3584   1.082       .  S
C3585      C3590   1.380       .  A
C3585      C3586   1.406       .  A
C3585      O3591   1.322       .  A
C3586      C3587   1.405       .  A
C3586      H3597   1.083       .  S
C3587      C3596   1.364       .  A
C3587      C3588   1.379       .  A
C3588      C3589   1.405       .  A
C3588      O3594   1.320       .  A
C3589      C3590   1.405       .  A
C3589      H3598   1.083       .  S
C3590      C3593   1.363       .  A
O3591      C3592   1.332       .  A
C3592      C3593   1.393       .  A
C3593      H3599   1.082       .  S
O3594      C3595   1.333       .  A
C3595      C3596   1.395       .  A
C3596      H3600   1.082       .  S
C3601      C3606   1.379       .  A
C3601      C3602   1.406       .  A
C3601      O3607   1.323       .  A
C3602      C3603   1.406       .  A
C3602      H3613   1.082       .  S
C3603      C3612   1.364       .  A
C3603      C3604   1.380       .  A
C3604      C3605   1.406       .  A
C3604      O3610   1.323       .  A
C3605      C3606   1.406       .  A
C3605      H3614   1.082       .  S
C3606      C3609   1.362       .  A
O3607      C3608   1.334       .  A
C3608      C3609   1.398       .  A
C3609      H3615   1.082       .  S
O3610      C3611   1.333       .  A
C3611      C3612   1.393       .  A
C3612      H3616   1.082       .  S
C3617      C3622   1.379       .  A
C3617      C3618   1.413       .  A
C3617      O3623   1.329       .  A
C3618      C3619   1.413       .  A
C3618      H3629   1.082       .  S
C3619      C3628   1.374       .  A
C3619      C3620   1.380       .  A
C3620      C3621   1.396       .  A
C3620      O3626   1.313       .  A
C3621      C3622   1.396       .  A
C3621      H3630   1.083       .  S
C3622      C3625   1.351       .  A
O3623      C3624   1.337       .  A
C3624      C3625   1.390       .  A
C3625      H3631   1.082       .  S
O3626      C3627   1.328       .  A
C3627      C3628   1.397       .  A
C3628      H3632   1.082       .  S
C3633      C3638   1.380       .  A
C3633      C3634   1.394       .  A
C3633      O3639   1.310       .  A
C3634      C3635   1.393   1_565  A
C3634      H3645   1.083       .  S
C3635      C3644   1.349       .  A
C3635      C3636   1.379       .  A
C3636      C3637   1.414   1_545  A
C3636      O3642   1.328       .  A
C3637      C3638   1.413       .  A
C3637      H3646   1.082       .  S
C3638      C3641   1.375       .  A
O3639      C3640   1.326       .  A
C3640      C3641   1.397       .  A
C3641      H3647   1.082       .  S
O3642      C3643   1.337       .  A
C3643      C3644   1.389       .  A
C3644      H3648   1.082       .  S
C3649      C3654   1.379       .  A
C3649      C3650   1.405       .  A
C3649      O3655   1.320       .  A
C3650      C3651   1.404       .  A
C3650      H3661   1.082       .  S
C3651      C3660   1.365       .  A
C3651      C3652   1.379       .  A
C3652      C3653   1.409       .  A
C3652      O3658   1.323       .  A
C3653      C3654   1.408       .  A
C3653      H3662   1.082       .  S
C3654      C3657   1.368       .  A
O3655      C3656   1.332       .  A
C3656      C3657   1.397       .  A
C3657      H3663   1.082       .  S
O3658      C3659   1.334       .  A
C3659      C3660   1.392       .  A
C3660      H3664   1.082       .  S
C3665      C3670   1.379       .  A
C3665      C3666   1.414       .  A
C3665      O3671   1.328       .  A
C3666      C3667   1.413   1_565  A
C3666      H3677   1.082       .  S
C3667      C3676   1.375       .  A
C3667      C3668   1.380       .  A
C3668      C3669   1.400   1_545  A
C3668      O3674   1.316       .  A
C3669      C3670   1.399       .  A
C3669      H3678   1.083       .  S
C3670      C3673   1.357       .  A
O3671      C3672   1.336       .  A
C3672      C3673   1.390       .  A
C3673      H3679   1.082       .  S
O3674      C3675   1.330       .  A
C3675      C3676   1.397       .  A
C3676      H3680   1.082       .  S
C3681      C3686   1.380       .  A
C3681      C3682   1.411       .  A
C3681      O3687   1.326       .  A
C3682      C3683   1.410       .  A
C3682      H3693   1.082       .  S
C3683      C3692   1.372       .  A
C3683      C3684   1.380       .  A
C3684      C3685   1.398       .  A
C3684      O3690   1.314       .  A
C3685      C3686   1.398       .  A
C3685      H3694   1.082       .  S
C3686      C3689   1.354       .  A
O3687      C3688   1.335       .  A
C3688      C3689   1.390       .  A
C3689      H3695   1.082       .  S
O3690      C3691   1.329       .  A
C3691      C3692   1.395       .  A
C3692      H3696   1.082       .  S
C3697      C3702   1.379       .  A
C3697      C3698   1.404       .  A
C3697      O3703   1.319       .  A
C3698      C3699   1.403       .  A
C3698      H3709   1.082       .  S
C3699      C3708   1.363       .  A
C3699      C3700   1.380       .  A
C3700      C3701   1.407       .  A
C3700      O3706   1.321       .  A
C3701      C3702   1.406       .  A
C3701      H3710   1.082       .  S
C3702      C3705   1.366       .  A
O3703      C3704   1.332       .  A
C3704      C3705   1.396       .  A
C3705      H3711   1.082       .  S
O3706      C3707   1.333       .  A
C3707      C3708   1.391       .  A
C3708      H3712   1.082       .  S
C3713      C3718   1.377       .  A
C3713      C3714   1.409       .  A
C3713      O3719   1.323       .  A
C3714      C3715   1.409       .  A
C3714      H3725   1.082       .  S
C3715      C3724   1.367       .  A
C3715      C3716   1.378       .  A
C3716      C3717   1.404       .  A
C3716      O3722   1.320       .  A
C3717      C3718   1.404       .  A
C3717      H3726   1.082       .  S
C3718      C3721   1.362       .  A
O3719      C3720   1.337       .  A
C3720      C3721   1.397       .  A
C3721      H3727   1.081       .  S
O3722      C3723   1.333       .  A
C3723      C3724   1.400       .  A
C3724      H3728   1.081       .  S
C3729      C3734   1.379       .  A
C3729      C3730   1.404       .  A
C3729      O3735   1.321       .  A
C3730      C3731   1.404       .  A
C3730      H3741   1.082       .  S
C3731      C3740   1.362       .  A
C3731      C3732   1.380       .  A
C3732      C3733   1.406       .  A
C3732      O3738   1.323       .  A
C3733      C3734   1.406       .  A
C3733      H3742   1.082       .  S
C3734      C3737   1.364       .  A
O3735      C3736   1.332       .  A
C3736      C3737   1.397       .  A
C3737      H3743   1.082       .  S
O3738      C3739   1.333       .  A
C3739      C3740   1.392       .  A
C3740      H3744   1.082       .  S
C3745      C3750   1.378       .  A
C3745      C3746   1.404       .  A
C3745      O3751   1.319       .  A
C3746      C3747   1.403       .  A
C3746      H3757   1.083       .  S
C3747      C3756   1.361       .  A
C3747      C3748   1.378       .  A
C3748      C3749   1.408       .  A
C3748      O3754   1.322       .  A
C3749      C3750   1.407       .  A
C3749      H3758   1.083       .  S
C3750      C3753   1.366       .  A
O3751      C3752   1.333       .  A
C3752      C3753   1.399       .  A
C3753      H3759   1.081       .  S
O3754      C3755   1.336       .  A
C3755      C3756   1.397       .  A
C3756      H3760   1.081       .  S
C3761      C3766   1.380       .  A
C3761      C3762   1.406       .  A
C3761      O3767   1.321       .  A
C3762      C3763   1.405       .  A
C3762      H3773   1.082       .  S
C3763      C3772   1.364       .  A
C3763      C3764   1.379       .  A
C3764      C3765   1.407       .  A
C3764      O3770   1.322       .  A
C3765      C3766   1.406       .  A
C3765      H3774   1.082       .  S
C3766      C3769   1.366       .  A
O3767      C3768   1.332       .  A
C3768      C3769   1.393       .  A
C3769      H3775   1.082       .  S
O3770      C3771   1.334       .  A
C3771      C3772   1.395       .  A
C3772      H3776   1.082       .  S
C3777      C3782   1.378       .  A
C3777      C3778   1.406       .  A
C3777      O3783   1.321       .  A
C3778      C3779   1.406       .  A
C3778      H3789   1.083       .  S
C3779      C3788   1.365       .  A
C3779      C3780   1.378       .  A
C3780      C3781   1.406       .  A
C3780      O3786   1.321       .  A
C3781      C3782   1.405       .  A
C3781      H3790   1.083       .  S
C3782      C3785   1.364       .  A
O3783      C3784   1.335       .  A
C3784      C3785   1.397       .  A
C3785      H3791   1.081       .  S
O3786      C3787   1.334       .  A
C3787      C3788   1.398       .  A
C3788      H3792   1.081       .  S
C3793      C3798   1.379       .  A
C3793      C3794   1.404       .  A
C3793      O3799   1.320       .  A
C3794      C3795   1.404       .  A
C3794      H3805   1.082       .  S
C3795      C3804   1.361       .  A
C3795      C3796   1.380       .  A
C3796      C3797   1.405       .  A
C3796      O3802   1.322       .  A
C3797      C3798   1.405       .  A
C3797      H3806   1.082       .  S
C3798      C3801   1.363       .  A
O3799      C3800   1.332       .  A
C3800      C3801   1.395       .  A
C3801      H3807   1.082       .  S
O3802      C3803   1.332       .  A
C3803      C3804   1.392       .  A
C3804      H3808   1.082       .  S
C3809      C3814   1.378       .  A
C3809      C3810   1.407       .  A
C3809      O3815   1.321       .  A
C3810      C3811   1.406       .  A
C3810      H3821   1.082       .  S
C3811      C3820   1.365       .  A
C3811      C3812   1.378       .  A
C3812      C3813   1.405       .  A
C3812      O3818   1.320       .  A
C3813      C3814   1.404       .  A
C3813      H3822   1.082       .  S
C3814      C3817   1.363       .  A
O3815      C3816   1.335       .  A
C3816      C3817   1.397       .  A
C3817      H3823   1.081       .  S
O3818      C3819   1.334       .  A
C3819      C3820   1.398       .  A
C3820      H3824   1.081       .  S
C3825      C3830   1.379       .  A
C3825      C3826   1.405       .  A
C3825      O3831   1.321       .  A
C3826      C3827   1.405       .  A
C3826      H3837   1.082       .  S
C3827      C3836   1.363       .  A
C3827      C3828   1.379       .  A
C3828      C3829   1.407       .  A
C3828      O3834   1.323       .  A
C3829      C3830   1.406       .  A
C3829      H3838   1.082       .  S
C3830      C3833   1.366       .  A
O3831      C3832   1.333       .  A
C3832      C3833   1.395       .  A
C3833      H3839   1.082       .  S
O3834      C3835   1.333       .  A
C3835      C3836   1.393       .  A
C3836      H3840   1.082       .  S
C3841      C3846   1.378       .  A
C3841      C3842   1.407       .  A
C3841      O3847   1.323       .  A
C3842      C3843   1.408       .  A
C3842      H3853   1.083       .  S
C3843      C3852   1.365       .  A
C3843      C3844   1.378       .  A
C3844      C3845   1.407       .  A
C3844      O3850   1.323       .  A
C3845      C3846   1.407       .  A
C3845      H3854   1.083       .  S
C3846      C3849   1.364       .  A
O3847      C3848   1.336       .  A
C3848      C3849   1.398       .  A
C3849      H3855   1.081       .  S
O3850      C3851   1.335       .  A
C3851      C3852   1.400       .  A
C3852      H3856   1.081       .  S
C3857      C3862   1.378       .  A
C3857      C3858   1.406       .  A
C3857      O3863   1.321       .  A
C3858      C3859   1.406       .  A
C3858      H3869   1.082       .  S
C3859      C3868   1.364       .  A
C3859      C3860   1.377       .  A
C3860      C3861   1.408       .  A
C3860      O3866   1.323       .  A
C3861      C3862   1.408       .  A
C3861      H3870   1.082       .  S
C3862      C3865   1.367       .  A
O3863      C3864   1.335       .  A
C3864      C3865   1.400       .  A
C3865      H3871   1.081       .  S
O3866      C3867   1.336       .  A
C3867      C3868   1.398       .  A
C3868      H3872   1.081       .  S
C3873      C3878   1.379       .  A
C3873      C3874   1.406       .  A
C3873      O3879   1.321       .  A
C3874      C3875   1.405       .  A
C3874      H3885   1.082       .  S
C3875      C3884   1.365       .  A
C3875      C3876   1.379       .  A
C3876      C3877   1.409       .  A
C3876      O3882   1.324       .  A
C3877      C3878   1.408       .  A
C3877      H3886   1.082       .  S
C3878      C3881   1.368       .  A
O3879      C3880   1.333       .  A
C3880      C3881   1.396       .  A
C3881      H3887   1.082       .  S
O3882      C3883   1.334       .  A
C3883      C3884   1.393       .  A
C3884      H3888   1.082       .  S
