geometry optimzed in LAMMPS
_audit_creation_date              2020-12-01 
_audit_creation_method            'lammps2cif' 
_symmetry_space_group_name_H-M    'P1' 
_symmetry_Int_Tables_number       1 
_symmetry_cell_setting            triclinic 
loop_ 
_symmetry_equiv_pos_as_xyz 
  x,y,z 
_cell_length_a                    29.696289 
_cell_length_b                    30.50819727293082 
_cell_length_c                    30.65736620355216 
_cell_angle_alpha                 82.73780155089997 
_cell_angle_beta                  87.23638303488416 
_cell_angle_gamma                 88.76650409378266 
loop_ 
_atom_site_label 
_atom_site_type_symbol 
_atom_site_fract_x 
_atom_site_fract_y 
_atom_site_fract_z 
_atom_site_charge 
C1          C  0.38007058  0.17025446  0.42642722     0.79600
N2          N  0.41381342  0.17262294  0.39395648    -0.78800
C3          C  0.41570179  0.14350501  0.36358465     0.82000
N4          N  0.38422439  0.11088769  0.36749836    -0.78700
C5          C  0.35029577  0.10756354  0.39956281     0.82100
N6          N  0.34791598  0.13827253  0.42846097    -0.80400
C7          C  0.41667588  0.37754965  0.16238926     0.79600
N8          N  0.41728162  0.34819194  0.13208478    -0.78800
C9          C  0.38522338  0.35040384  0.10125986     0.82000
N10         N  0.35223447  0.38222666  0.10141408    -0.78700
C11         C  0.35051424  0.41146150  0.13171730     0.82100
N12         N  0.38300388  0.40903992  0.16211871    -0.80400
C13         C  0.11546947  0.37730465  0.33743840     0.79600
N14         N  0.12335534  0.34188395  0.36824964    -0.78800
C15         C  0.15500978  0.34314053  0.39903720     0.82000
N16         N  0.17903307  0.38104337  0.39854804    -0.78700
C17         C  0.17209334  0.41686268  0.36735668     0.82100
N18         N  0.14014322  0.41466847  0.33721739    -0.80400
C19         C  0.09028995  0.13099782  0.07382545     0.79600
N20         N  0.12097288  0.09691338  0.07343661    -0.78800
C21         C  0.12253030  0.06348480  0.10768951     0.82000
N22         N  0.09277336  0.06457851  0.14297052    -0.79700
C23         C  0.06129150  0.09776283  0.14392852     0.82100
N24         N  0.06103437  0.13133304  0.10964094    -0.80400
O25         O  0.05141423  0.09356711  0.22299308    -0.75100
O26         O  0.49002030  0.13352524  0.32705775    -0.75100
O27         O  0.99226391  0.05995534  0.29037108    -0.75200
O28         O  0.05232130  0.16808139  0.25869475    -0.75200
O29         O  0.49522923  0.19337323  0.21822487    -0.75200
O30         O  0.43369902  0.08391917  0.25111996    -0.75100
O31         O  0.43349526  0.15911318  0.28578337    -0.75100
O32         O  0.99366889  0.11895724  0.18286592    -0.75200
Ni33       Ni  0.02357842  0.11314202  0.27624160     1.25400
Ni34       Ni  0.46199617  0.13988326  0.23306178     1.25400
C35         C  0.03368892  0.10243148  0.18530399     0.87100
C36         C  0.44887184  0.14770010  0.32402325     0.87000
C37         C  0.45130113  0.05636185  0.28068255     0.87000
C38         C  0.53640353  0.19591562  0.22850384     0.87200
O39         O  0.10852452  0.16698500  0.00026984    -0.75100
O40         O  0.16294957  0.26534367  0.42442369    -0.75100
O41         O  0.19092850  0.19791961  0.49064317    -0.75200
O42         O  0.08112212  0.23590559  0.43520329    -0.75200
O43         O  0.06531307  0.27619836  0.98965383    -0.75200
O44         O  0.17622129  0.24435898  0.03956004    -0.75100
O45         O  0.14654992  0.30987940  0.47524451    -0.75100
O46         O  0.09473621  0.21022816  0.05279380    -0.75200
Ni47       Ni  0.13653707  0.21478109  0.46080867     1.25400
Ni48       Ni  0.12025895  0.26162055  0.01612965     1.25400
C49         C  0.09639380  0.17142917  0.04034363     0.87100
C50         C  0.15781306  0.30463028  0.43510049     0.87000
C51         C  0.19839382  0.21147563  0.52753778     0.87000
C52         C  0.05911486  0.26746662  0.45085382     0.87200
O53         O  0.30760296  0.47306929  0.09782199    -0.75100
O54         O  0.19456725  0.03728527  0.08127059    -0.75100
O55         O  0.27255997  0.05457235  0.11513129    -0.75200
O56         O  0.22909437  0.95780140  0.06547870    -0.75200
O57         O  0.20068556  0.42508751  0.12977307    -0.75200
O58         O  0.24724301  0.52159247  0.18055916    -0.75100
O59         O  0.16809978  0.00602352  0.14682726    -0.75100
O60         O  0.28125745  0.44018593  0.16280542    -0.75200
Ni61       Ni  0.25213281  0.00663202  0.08774270     1.25400
Ni62       Ni  0.22371252  0.47209810  0.15758266     1.25400
C63         C  0.31203454  0.44403479  0.13157992     0.87100
C64         C  0.16307057  0.03324571  0.11162592     0.87000
C65         C  0.26320927  0.55540200  0.15595059     0.87000
C66         C  0.20744198  0.42632355  0.08828150     0.87200
O67         O  0.48033519  0.40893730  0.19194289    -0.75100
O68         O  0.07548768  0.40810713  0.27407885    -0.75100
O69         O  0.06868792  0.38056995  0.19352625    -0.75200
O70         O  0.98814473  0.43435271  0.27247581    -0.75200
O71         O  0.46459722  0.36856248  0.30484816    -0.75200
O72         O  0.54502068  0.31606948  0.22864421    -0.75100
O73         O  0.05241064  0.34307569  0.30815754    -0.75100
O74         O  0.45811898  0.34278251  0.22397279    -0.75200
Ni75       Ni  0.02891568  0.41044478  0.23178447     1.25400
Ni76       Ni  0.50433345  0.34026734  0.26744033     1.25400
C77         C  0.45339314  0.37627208  0.19437589     0.87100
C78         C  0.07949512  0.37587232  0.30496301     0.87000
C79         C  0.07014461  0.33835534  0.19931260     0.87000
C80         C  0.96358430  0.41034329  0.30131618     0.87200
O81         O  0.18617406  0.49336913  0.37780509    -0.75100
O82         O  0.27295226  0.07936301  0.40780073    -0.75100
O83         O  0.22750060  0.06870608  0.33677384    -0.75200
O84         O  0.22710328  0.00568603  0.45018041    -0.75200
O85         O  0.27935504  0.45880996  0.42936670    -0.75200
O86         O  0.28563416  0.52761295  0.31553685    -0.75100
O87         O  0.32828388  0.03414075  0.38903684    -0.75100
O88         O  0.24327491  0.45201855  0.35542562    -0.75200
Ni89       Ni  0.22661459  0.03850786  0.39401225     1.25400
Ni90       Ni  0.28669756  0.49197924  0.37172858     1.25400
C91         C  0.20130900  0.45664702  0.36537729     0.87100
C92         C  0.31540853  0.07180301  0.40013251     0.87000
C93         C  0.25702632  0.55958033  0.30787567     0.87000
C94         C  0.24445201  0.46700712  0.45367155     0.87200
O95         O  0.34548428  0.22884772  0.46331869    -0.75100
O96         O  0.35320296  0.31928150  0.04138045    -0.75100
O97         O  0.37706134  0.31124083  0.45544348    -0.75200
O98         O  0.31964174  0.23768679  0.54749774    -0.75200
O99         O  0.38392408  0.20424869  0.06904903    -0.75200
O100        O  0.44258416  0.28550261  0.98195104    -0.75100
O101        O  0.41592783  0.28766666  0.06801264    -0.75100
O102        O  0.41313379  0.20324856  0.48380296    -0.75200
Ni103      Ni  0.34645181  0.27537394  0.50138668     1.25400
Ni104      Ni  0.41641224  0.24433507  0.02667216     1.25400
C105        C  0.37918957  0.20210060  0.45963473     0.87100
C106        C  0.38501472  0.31767446  0.06855000     0.87000
C107        C  0.41966245  0.30934731  0.95304678     0.87000
C108        C  0.34099300  0.20761808  0.07135099     0.87200
C109        C  0.17310944  0.93816843  0.49580598    -0.02500
C110        C  0.21942622  0.43156448  0.48233848     0.07200
C111        C  0.24079562  0.39228830  0.50097324    -0.02600
C112        C  0.22296292  0.37144585  0.04171942    -0.02600
C113        C  0.18862165  0.39366486  0.06343855     0.07300
C114        C  0.15659664  0.91521951  0.03604064    -0.02800
Br115      Br  0.10010344  0.93230121  0.06292246    -0.01400
Br116      Br  0.13310525  0.97995861  0.46392370    -0.01400
Br117      Br  0.25434239  0.32454350  0.07520785    -0.01400
Br118      Br  0.29218161  0.36786390  0.47212155    -0.01400
C119        C  0.29923583  0.59833440  0.24391452    -0.02500
C120        C  0.25781371  0.58596230  0.26486428     0.07200
C121        C  0.21850768  0.09522385  0.24157823    -0.02600
C122        C  0.22384964  0.10704318  0.19612459    -0.02600
C123        C  0.26526085  0.59670190  0.17519134     0.07300
C124        C  0.30389957  0.60194711  0.19806866    -0.02800
Br125      Br  0.36218636  0.60746598  0.16795012    -0.01400
Br126      Br  0.34466435  0.61678669  0.27795116    -0.01400
Br127      Br  0.17359662  0.12635210  0.16244047    -0.01400
Br128      Br  0.15902311  0.08699229  0.26916099    -0.01400
C129        C  0.00112858  0.28239439  0.39289029    -0.02500
C130        C  0.02842340  0.29738282  0.42424311     0.07200
C131        C  0.01961172  0.34050130  0.93638897    -0.02600
C132        C  0.47631531  0.35895410  0.93115159    -0.02600
C133        C  0.44427875  0.33287937  0.41577813     0.07300
C134        C  0.45910704  0.30367526  0.38604495    -0.02800
Br135      Br  0.41548138  0.28133549  0.35051757    -0.01400
Br136      Br  0.01796335  0.23210288  0.36331705    -0.01400
Br137      Br  0.45465056  0.40407786  0.96638031    -0.01400
Br138      Br  0.06279497  0.37208366  0.96501541    -0.01400
C139        C  0.30012467  0.14434237  0.56803198    -0.02500
C140        C  0.31306600  0.17400924  0.59628224     0.07200
C141        C  0.27837293  0.19284970  0.12047547    -0.02600
C142        C  0.23759999  0.20318075  0.09980846    -0.02600
C143        C  0.23169102  0.18886423  0.55787055     0.07300
C144        C  0.25970132  0.15344481  0.54614937    -0.02800
Br145      Br  0.24461501  0.11776930  0.50156820    -0.01400
Br146      Br  0.34515700  0.10468145  0.54717337    -0.01400
Br147      Br  0.19234825  0.23638368  0.12969100    -0.01400
Br148      Br  0.29354300  0.21902123  0.17161984    -0.01400
C149        C  0.39600433  0.99328827  0.28877125    -0.02500
C150        C  0.42514234  0.02117672  0.30739636     0.07200
C151        C  0.94257803  0.00505729  0.34865984    -0.02600
C152        C  0.95412801  0.46046471  0.35484402    -0.02600
C153        C  0.43283750  0.43260468  0.32930011     0.07300
C154        C  0.39464255  0.44870153  0.30696171    -0.02800
Br155      Br  0.35651847  0.40733029  0.28441084    -0.01400
Br156      Br  0.36924350  0.00963665  0.23351140    -0.01400
Br157      Br  0.01446626  0.44673835  0.37414763    -0.01400
Br158      Br  0.96657135  0.04304563  0.38728205    -0.01400
C159        C  0.55437220  0.25102027  0.16123363    -0.02500
C160        C  0.56636210  0.22985717  0.20337790     0.07200
C161        C  0.10743675  0.24302847  0.22004538    -0.02600
C162        C  0.12639562  0.28366730  0.20130980    -0.02600
C163        C  0.60004324  0.31214969  0.17304988     0.07300
C164        C  0.57476523  0.29135890  0.14456686    -0.02800
Br165      Br  0.55580936  0.32525157  0.09150034    -0.01400
Br166      Br  0.51068717  0.22716496  0.12637841    -0.01400
Br167      Br  0.17712768  0.30822553  0.22576996    -0.01400
Br168      Br  0.13617120  0.21008906  0.26923082    -0.01400
C169        C  0.38006514  0.17024932  0.92642396     0.79600
N170        N  0.41380726  0.17261952  0.89395233    -0.78800
C171        C  0.41569534  0.14350299  0.86357914     0.82000
N172        N  0.38421888  0.11088445  0.86749317    -0.78700
C173        C  0.35029096  0.10755875  0.89955856     0.82100
N174        N  0.34791144  0.13826678  0.92845755    -0.80400
C175        C  0.41667446  0.37756189  0.66238720     0.79600
N176        N  0.41728194  0.34820415  0.63208272    -0.78800
C177        C  0.38522520  0.35041607  0.60125631     0.82000
N178        N  0.35223623  0.38223873  0.60140915    -0.78700
C179        C  0.35051399  0.41147361  0.63171242     0.82100
N180        N  0.38300237  0.40905206  0.66211531    -0.80400
C181        C  0.11546268  0.37729697  0.83744364     0.79600
N182        N  0.12334762  0.34187495  0.86825287    -0.78800
C183        C  0.15500154  0.34312915  0.89904153     0.82000
N184        N  0.17902502  0.38103166  0.89855529    -0.78700
C185        C  0.17208593  0.41685250  0.86736580     0.82100
N186        N  0.14013673  0.41466058  0.83722547    -0.80400
C187        C  0.09029330  0.13101181  0.57382218     0.79600
N188        N  0.12097436  0.09692595  0.57343162    -0.78800
C189        C  0.12252925  0.06349498  0.60768214     0.82000
N190        N  0.09277147  0.06458724  0.64296261    -0.79700
C191        C  0.06129137  0.09777265  0.64392225     0.82100
N192        N  0.06103665  0.13134573  0.60963713    -0.80400
O193        O  0.05141333  0.09357530  0.72298672    -0.75100
O194        O  0.49001545  0.13353038  0.82705107    -0.75100
O195        O  0.99226594  0.05995980  0.79036599    -0.75200
O196        O  0.05231444  0.16809052  0.75868625    -0.75200
O197        O  0.49522099  0.19337731  0.71821742    -0.75200
O198        O  0.43370086  0.08391837  0.75111291    -0.75100
O199        O  0.43348785  0.15911151  0.78577690    -0.75100
O200        O  0.99366679  0.11896125  0.68285924    -0.75200
Ni201      Ni  0.02357578  0.11314896  0.77623502     1.25400
Ni202      Ni  0.46199235  0.13988471  0.73305505     1.25400
C203        C  0.03368784  0.10243869  0.68529751     0.87100
C204        C  0.44886526  0.14770039  0.82401690     0.87000
C205        C  0.45130416  0.05636319  0.78067665     0.87000
C206        C  0.53639556  0.19592210  0.72849476     0.87200
O207        O  0.10853142  0.16699927  0.50026803    -0.75100
O208        O  0.16294032  0.26533136  0.92442519    -0.75100
O209        O  0.19092136  0.19790601  0.99064263    -0.75200
O210        O  0.08111330  0.23589280  0.93520644    -0.75200
O211        O  0.06532099  0.27621359  0.48964878    -0.75200
O212        O  0.17622677  0.24437219  0.53956073    -0.75100
O213        O  0.14654139  0.30986584  0.97524731    -0.75100
O214        O  0.09474051  0.21024297  0.55279114    -0.75200
Ni215      Ni  0.13652891  0.21476774  0.96081003     1.25400
Ni216      Ni  0.12026561  0.26163488  0.51612721     1.25400
C217        C  0.09639876  0.17144375  0.54034126     0.87100
C218        C  0.15780402  0.30461769  0.93510307     0.87000
C219        C  0.19838820  0.21146251  0.02753640     0.87000
C220        C  0.05910696  0.26745378  0.95085820     0.87200
O221        O  0.30760163  0.47308072  0.59781694    -0.75100
O222        O  0.19456419  0.03729336  0.58126245    -0.75100
O223        O  0.27255220  0.05458143  0.61512799    -0.75200
O224        O  0.22909421  0.95781013  0.56546892    -0.75200
O225        O  0.20068633  0.42509402  0.62976273    -0.75200
O226        O  0.24723367  0.52159820  0.68055455    -0.75100
O227        O  0.16809449  0.00602860  0.64681717    -0.75100
O228        O  0.28125476  0.44019489  0.66279885    -0.75200
Ni229      Ni  0.25212964  0.00664131  0.58773593     1.25400
Ni230      Ni  0.22370853  0.47210454  0.65757459     1.25400
C231        C  0.31203308  0.44404558  0.63157459     0.87100
C232        C  0.16306718  0.03325328  0.61161733     0.87000
C233        C  0.26319872  0.55540930  0.65594802     0.87000
C234        C  0.20744475  0.42633077  0.58827135     0.87200
O235        O  0.48033122  0.40894742  0.69194751    -0.75100
O236        O  0.07548351  0.40810510  0.77408472    -0.75100
O237        O  0.06868143  0.38057734  0.69352803    -0.75200
O238        O  0.98814176  0.43435461  0.77248395    -0.75200
O239        O  0.46459005  0.36856331  0.80484982    -0.75200
O240        O  0.54501397  0.31607485  0.72864213    -0.75100
O241        O  0.05240300  0.34307310  0.80815909    -0.75100
O242        O  0.45811398  0.34279055  0.72397093    -0.75200
Ni243      Ni  0.02891148  0.41044934  0.73178996     1.25400
Ni244      Ni  0.50432680  0.34027007  0.76744016     1.25400
C245        C  0.45338930  0.37628245  0.69437645     0.87100
C246        C  0.07948904  0.37586869  0.80496701     0.87000
C247        C  0.07013615  0.33836276  0.69931021     0.87000
C248        C  0.96357908  0.41034427  0.80132158     0.87200
O249        O  0.18616766  0.49335886  0.87781450    -0.75100
O250        O  0.27294744  0.07935802  0.90779757    -0.75100
O251        O  0.22749239  0.06869322  0.83677465    -0.75200
O252        O  0.22709988  0.00568457  0.95018596    -0.75200
O253        O  0.27934929  0.45880474  0.92937498    -0.75200
O254        O  0.28562602  0.52759944  0.81554006    -0.75100
O255        O  0.32827862  0.03413412  0.88903651    -0.75100
O256        O  0.24326804  0.45200724  0.85543576    -0.75200
Ni257      Ni  0.22660880  0.03850049  0.89401518     1.25400
Ni258      Ni  0.28669109  0.49196980  0.87173427     1.25400
C259        C  0.20130237  0.45663619  0.86538777     0.87100
C260        C  0.31540366  0.07179758  0.90012953     0.87000
C261        C  0.25701764  0.55956628  0.80787752     0.87000
C262        C  0.24444690  0.46700431  0.95367982     0.87200
O263        O  0.34547932  0.22884096  0.96331816    -0.75100
O264        O  0.35320711  0.31929162  0.54137721    -0.75100
O265        O  0.37705610  0.31123367  0.95544559    -0.75200
O266        O  0.31963774  0.23767778  0.04749820    -0.75200
O267        O  0.38392819  0.20425889  0.56904956    -0.75200
O268        O  0.44258939  0.28551219  0.48195068    -0.75100
O269        O  0.41593124  0.28767782  0.56801173    -0.75100
O270        O  0.41312854  0.20324001  0.98380164    -0.75200
Ni271      Ni  0.34644717  0.27536574  0.00138801     1.25400
Ni272      Ni  0.41641673  0.24434492  0.52667237     1.25400
C273        C  0.37918438  0.20209358  0.95963320     0.87100
C274        C  0.38501813  0.31768550  0.56854758     0.87000
C275        C  0.41966774  0.30935597  0.45304566     0.87000
C276        C  0.34099707  0.20762751  0.57135113     0.87200
C277        C  0.17310391  0.93817167  0.99581819    -0.02500
C278        C  0.21941936  0.43156362  0.98234858     0.07200
C279        C  0.24078576  0.39228470  0.00098108    -0.02600
C280        C  0.22297484  0.37145156  0.54171324    -0.02600
C281        C  0.18862992  0.39366877  0.56342906     0.07300
C282        C  0.15660298  0.91521703  0.53602883    -0.02800
Br283      Br  0.10010660  0.93229336  0.56290719    -0.01400
Br284      Br  0.13310211  0.97996695  0.96393899    -0.01400
Br285      Br  0.25436003  0.32455841  0.57520875    -0.01400
Br286      Br  0.29217340  0.36786054  0.97213128    -0.01400
C287        C  0.29922740  0.59832121  0.74391643    -0.02500
C288        C  0.25780519  0.58594823  0.76486579     0.07200
C289        C  0.21849831  0.09521834  0.74158152    -0.02600
C290        C  0.22383882  0.10704544  0.69612841    -0.02600
C291        C  0.26524943  0.59670706  0.67519224     0.07300
C292        C  0.30388879  0.60194624  0.69807013    -0.02800
Br293      Br  0.36217488  0.60746527  0.66795066    -0.01400
Br294      Br  0.34465941  0.61676359  0.77795455    -0.01400
Br295      Br  0.17358535  0.12636517  0.66244834    -0.01400
Br296      Br  0.15901414  0.08699586  0.76916781    -0.01400
C297        C  0.00112452  0.28238745  0.89289187    -0.02500
C298        C  0.02841739  0.29737270  0.92424806     0.07200
C299        C  0.01961819  0.34051247  0.43638084    -0.02600
C300        C  0.47632072  0.35896308  0.43114624    -0.02600
C301        C  0.44427401  0.33287190  0.91578037     0.07300
C302        C  0.45910330  0.30366900  0.88604632    -0.02800
Br303      Br  0.41547762  0.28132748  0.85051998    -0.01400
Br304      Br  0.01796194  0.23209956  0.86331380    -0.01400
Br305      Br  0.45465847  0.40409002  0.46637198    -0.01400
Br306      Br  0.06280518  0.37209952  0.46499745    -0.01400
C307        C  0.30012222  0.14433320  0.06802962    -0.02500
C308        C  0.31306153  0.17399984  0.09628093     0.07200
C309        C  0.27837815  0.19285880  0.62047771    -0.02600
C310        C  0.23760547  0.20319222  0.59981078    -0.02600
C311        C  0.23168667  0.18885248  0.05786821     0.07300
C312        C  0.25969955  0.15343518  0.04614580    -0.02800
Br313      Br  0.24461971  0.11776432  0.00155856    -0.01400
Br314      Br  0.34515816  0.10467748  0.04716780    -0.01400
Br315      Br  0.19235626  0.23639751  0.62969242    -0.01400
Br316      Br  0.29354813  0.21902165  0.67162710    -0.01400
C317        C  0.39600772  0.99328929  0.78876586    -0.02500
C318        C  0.42514697  0.02117709  0.80739017     0.07200
C319        C  0.94257899  0.00506015  0.84865607    -0.02600
C320        C  0.95412174  0.46046562  0.85484873    -0.02600
C321        C  0.43283106  0.43260494  0.82930541     0.07300
C322        C  0.39463861  0.44870426  0.80696395    -0.02800
Br323      Br  0.35650753  0.40733533  0.78441909    -0.01400
Br324      Br  0.36925854  0.00963238  0.73349885    -0.01400
Br325      Br  0.01445542  0.44673308  0.87416194    -0.01400
Br326      Br  0.96657171  0.04305027  0.88727701    -0.01400
C327        C  0.55435702  0.25103021  0.66122479    -0.02500
C328        C  0.56635245  0.22986393  0.70336611     0.07200
C329        C  0.10742930  0.24303408  0.72002809    -0.02600
C330        C  0.12638552  0.28367443  0.70129381    -0.02600
C331        C  0.60002942  0.31215872  0.67304134     0.07300
C332        C  0.57474488  0.29137203  0.64456005    -0.02800
Br333      Br  0.55576133  0.32527725  0.59151063    -0.01400
Br334      Br  0.51067034  0.22717518  0.62637105    -0.01400
Br335      Br  0.17712159  0.30823076  0.72574966    -0.01400
Br336      Br  0.13617262  0.21008999  0.76920547    -0.01400
C337        C  0.38007071  0.67025438  0.42642717     0.79600
N338        N  0.41381372  0.67262287  0.39395648    -0.78800
C339        C  0.41570211  0.64350500  0.36358463     0.82000
N340        N  0.38422461  0.61088780  0.36749817    -0.78700
C341        C  0.35029598  0.60756357  0.39956255     0.82100
N342        N  0.34791616  0.63827245  0.42846076    -0.80400
C343        C  0.41667605  0.87754973  0.16238933     0.79600
N344        N  0.41728210  0.84819205  0.13208472    -0.78800
C345        C  0.38522356  0.85040408  0.10125987     0.82000
N346        N  0.35223498  0.88222692  0.10141409    -0.78700
C347        C  0.35051439  0.91146168  0.13171730     0.82100
N348        N  0.38300426  0.90903992  0.16211883    -0.80400
C349        C  0.11546968  0.87730471  0.33743818     0.79600
N350        N  0.12335530  0.84188383  0.36824954    -0.78800
C351        C  0.15500959  0.84314062  0.39903720     0.82000
N352        N  0.17903296  0.88104327  0.39854812    -0.78700
C353        C  0.17209341  0.91686269  0.36735660     0.82100
N354        N  0.14014336  0.91466828  0.33721731    -0.80400
C355        C  0.09029006  0.63099783  0.07382547     0.79600
N356        N  0.12097275  0.59691326  0.07343640    -0.78800
C357        C  0.12253005  0.56348458  0.10768942     0.82000
N358        N  0.09277322  0.56457850  0.14297024    -0.79700
C359        C  0.06129142  0.59776286  0.14392847     0.82100
N360        N  0.06103443  0.63133323  0.10964080    -0.80400
O361        O  0.05141416  0.59356712  0.22299300    -0.75100
O362        O  0.49002065  0.63352521  0.32705750    -0.75100
O363        O  0.99226394  0.55995540  0.29037098    -0.75200
O364        O  0.05232144  0.66808133  0.25869450    -0.75200
O365        O  0.49522970  0.69337331  0.21822498    -0.75200
O366        O  0.43369949  0.58391937  0.25111950    -0.75100
O367        O  0.43349549  0.65911315  0.28578329    -0.75100
O368        O  0.99366899  0.61895753  0.18286574    -0.75200
Ni369      Ni  0.02357846  0.61314200  0.27624152     1.25400
Ni370      Ni  0.46199665  0.63988348  0.23306164     1.25400
C371        C  0.03368892  0.60243158  0.18530381     0.87100
C372        C  0.44887221  0.64770003  0.32402317     0.87000
C373        C  0.45130141  0.55636206  0.28068227     0.87000
C374        C  0.53640402  0.69591564  0.22850400     0.87200
O375        O  0.10852497  0.66698509  0.00026965    -0.75100
O376        O  0.16294932  0.76534369  0.42442381    -0.75100
O377        O  0.19092830  0.69791978  0.49064332    -0.75200
O378        O  0.08112188  0.73590530  0.43520345    -0.75200
O379        O  0.06531354  0.77619855  0.98965373    -0.75200
O380        O  0.17622181  0.74435892  0.03956008    -0.75100
O381        O  0.14654957  0.80987950  0.47524448    -0.75100
O382        O  0.09473649  0.71022809  0.05279372    -0.75200
Ni383      Ni  0.13653692  0.71478103  0.46080885     1.25400
Ni384      Ni  0.12025941  0.76162051  0.01612964     1.25400
C385        C  0.09639426  0.67142919  0.04034349     0.87100
C386        C  0.15781267  0.80463027  0.43510050     0.87000
C387        C  0.19839362  0.71147587  0.52753786     0.87000
C388        C  0.05911468  0.76746628  0.45085385     0.87200
O389        O  0.30760333  0.97306958  0.09782210    -0.75100
O390        O  0.19456690  0.53728485  0.08127031    -0.75100
O391        O  0.27255963  0.55457224  0.11513094    -0.75200
O392        O  0.22909416  0.45780096  0.06547860    -0.75200
O393        O  0.20068598  0.92508769  0.12977315    -0.75200
O394        O  0.24724328  0.02159255  0.18055950    -0.75100
O395        O  0.16809954  0.50602336  0.14682715    -0.75100
O396        O  0.28125782  0.94018611  0.16280558    -0.75200
Ni397      Ni  0.25213241  0.50663173  0.08774251     1.25400
Ni398      Ni  0.22371293  0.97209829  0.15758286     1.25400
C399        C  0.31203487  0.94403488  0.13158021     0.87100
C400        C  0.16307037  0.53324555  0.11162567     0.87000
C401        C  0.26320939  0.05540211  0.15595093     0.87000
C402        C  0.20744243  0.92632383  0.08828157     0.87200
O403        O  0.48033542  0.90893723  0.19194297    -0.75100
O404        O  0.07548779  0.90810715  0.27407872    -0.75100
O405        O  0.06868789  0.88057005  0.19352618    -0.75200
O406        O  0.98814485  0.93435265  0.27247599    -0.75200
O407        O  0.46459748  0.86856227  0.30484825    -0.75200
O408        O  0.54502081  0.81606948  0.22864423    -0.75100
O409        O  0.05241092  0.84307568  0.30815747    -0.75100
O410        O  0.45811932  0.84278240  0.22397291    -0.75200
Ni411      Ni  0.02891572  0.91044494  0.23178443     1.25400
Ni412      Ni  0.50433365  0.84026718  0.26744051     1.25400
C413        C  0.45339339  0.87627199  0.19437603     0.87100
C414        C  0.07949522  0.87587221  0.30496300     0.87000
C415        C  0.07014448  0.83835550  0.19931244     0.87000
C416        C  0.96358457  0.91034322  0.30131641     0.87200
O417        O  0.18617402  0.99336912  0.37780529    -0.75100
O418        O  0.27295254  0.57936316  0.40780036    -0.75100
O419        O  0.22750079  0.56870599  0.33677351    -0.75200
O420        O  0.22710348  0.50568624  0.45018023    -0.75200
O421        O  0.27935477  0.95880968  0.42936670    -0.75200
O422        O  0.28563423  0.02761329  0.31553724    -0.75100
O423        O  0.32828401  0.53414080  0.38903634    -0.75100
O424        O  0.24327486  0.95201868  0.35542557    -0.75200
Ni425      Ni  0.22661478  0.53850795  0.39401197     1.25400
Ni426      Ni  0.28669748  0.99197923  0.37172882     1.25400
C427        C  0.20130898  0.95664704  0.36537727     0.87100
C428        C  0.31540873  0.57180308  0.40013218     0.87000
C429        C  0.25702623  0.05958053  0.30787598     0.87000
C430        C  0.24445182  0.96700689  0.45367168     0.87200
O431        O  0.34548423  0.72884743  0.46331851    -0.75100
O432        O  0.35320323  0.81928187  0.04138047    -0.75100
O433        O  0.37706101  0.81124072  0.45544366    -0.75200
O434        O  0.31964135  0.73768650  0.54749767    -0.75200
O435        O  0.38392446  0.70424902  0.06904909    -0.75200
O436        O  0.44258430  0.78550277  0.98195089    -0.75100
O437        O  0.41592819  0.78766699  0.06801245    -0.75100
O438        O  0.41313369  0.70324844  0.48380309    -0.75200
Ni439      Ni  0.34645143  0.77537368  0.50138676     1.25400
Ni440      Ni  0.41641254  0.74433523  0.02667211     1.25400
C441        C  0.37918956  0.70210027  0.45963477     0.87100
C442        C  0.38501525  0.81767470  0.06854997     0.87000
C443        C  0.41966258  0.80934737  0.95304655     0.87000
C444        C  0.34099349  0.70761823  0.07135109     0.87200
C445        C  0.17310985  0.43816876  0.49580617    -0.02500
C446        C  0.21942581  0.93156407  0.48233825     0.07200
C447        C  0.24079505  0.89228785  0.50097311    -0.02600
C448        C  0.22296327  0.87144626  0.04171934    -0.02600
C449        C  0.18862206  0.89366522  0.06343860     0.07300
C450        C  0.15659629  0.41521909  0.03604052    -0.02800
Br451      Br  0.10010324  0.43230136  0.06292213    -0.01400
Br452      Br  0.13310560  0.47995880  0.46392392    -0.01400
Br453      Br  0.25434263  0.82454373  0.07520753    -0.01400
Br454      Br  0.29218056  0.86786293  0.47212114    -0.01400
C455        C  0.29923576  0.09833482  0.24391492    -0.02500
C456        C  0.25781362  0.08596276  0.26486475     0.07200
C457        C  0.21850770  0.59522359  0.24157787    -0.02600
C458        C  0.22384966  0.60704308  0.19612424    -0.02600
C459        C  0.26526082  0.09670200  0.17519170     0.07300
C460        C  0.30389950  0.10194734  0.19806905    -0.02800
Br461      Br  0.36218637  0.10746608  0.16795047    -0.01400
Br462      Br  0.34466405  0.11678802  0.27795121    -0.01400
Br463      Br  0.17359658  0.62635201  0.16244020    -0.01400
Br464      Br  0.15902323  0.58699162  0.26916064    -0.01400
C465        C  0.00112851  0.78239421  0.39289036    -0.02500
C466        C  0.02842338  0.79738276  0.42424316     0.07200
C467        C  0.01961201  0.84050135  0.93638881    -0.02600
C468        C  0.47631538  0.85895406  0.93115116    -0.02600
C469        C  0.44427838  0.83287949  0.41577844     0.07300
C470        C  0.45910673  0.80367546  0.38604526    -0.02800
Br471      Br  0.41548126  0.78133540  0.35051792    -0.01400
Br472      Br  0.01796362  0.73210312  0.36331642    -0.01400
Br473      Br  0.45465048  0.90407781  0.96637997    -0.01400
Br474      Br  0.06279529  0.87208384  0.96501513    -0.01400
C475        C  0.30012417  0.64434220  0.56803233    -0.02500
C476        C  0.31306562  0.67400909  0.59628253     0.07200
C477        C  0.27837340  0.69284978  0.12047555    -0.02600
C478        C  0.23760040  0.70318078  0.09980859    -0.02600
C479        C  0.23169066  0.68886422  0.55787071     0.07300
C480        C  0.25970097  0.65344480  0.54614953    -0.02800
Br481      Br  0.24461479  0.61776954  0.50156819    -0.01400
Br482      Br  0.34515635  0.60468123  0.54717369    -0.01400
Br483      Br  0.19234863  0.73638369  0.12969111    -0.01400
Br484      Br  0.29354358  0.71902156  0.17161971    -0.01400
C485        C  0.39600442  0.49328850  0.28877092    -0.02500
C486        C  0.42514247  0.52117694  0.30739604     0.07200
C487        C  0.94257769  0.50505736  0.34865965    -0.02600
C488        C  0.95412828  0.96046462  0.35484433    -0.02600
C489        C  0.43283765  0.93260442  0.32930032     0.07300
C490        C  0.39464263  0.94870127  0.30696197    -0.02800
Br491      Br  0.35651867  0.90732981  0.28441111    -0.01400
Br492      Br  0.36924435  0.50963664  0.23351063    -0.01400
Br493      Br  0.01446640  0.94673797  0.37414824    -0.01400
Br494      Br  0.96657090  0.54304561  0.38728204    -0.01400
C495        C  0.55437311  0.75102018  0.16123360    -0.02500
C496        C  0.56636260  0.72985723  0.20337811     0.07200
C497        C  0.10743672  0.74302865  0.22004520    -0.02600
C498        C  0.12639553  0.78366744  0.20130959    -0.02600
C499        C  0.60004373  0.81214981  0.17305015     0.07300
C500        C  0.57476584  0.79135902  0.14456700    -0.02800
Br501      Br  0.55580931  0.82525172  0.09150073    -0.01400
Br502      Br  0.51068833  0.72716453  0.12637837    -0.01400
Br503      Br  0.17712733  0.80822579  0.22576998    -0.01400
Br504      Br  0.13617070  0.71008974  0.26923117    -0.01400
C505        C  0.38006513  0.67024921  0.92642430     0.79600
N506        N  0.41380718  0.67261939  0.89395267    -0.78800
C507        C  0.41569541  0.64350268  0.86357959     0.82000
N508        N  0.38421895  0.61088420  0.86749372    -0.78700
C509        C  0.35029095  0.60755843  0.89955912     0.82100
N510        N  0.34791148  0.63826649  0.92845813    -0.80400
C511        C  0.41667382  0.87756193  0.66238711     0.79600
N512        N  0.41728131  0.84820411  0.63208274    -0.78800
C513        C  0.38522449  0.85041586  0.60125642     0.82000
N514        N  0.35223565  0.88223860  0.60140913    -0.78700
C515        C  0.35051342  0.91147364  0.63171227     0.82100
N516        N  0.38300180  0.90905215  0.66211525    -0.80400
C517        C  0.11546255  0.87729715  0.83744387     0.79600
N518        N  0.12334763  0.84187495  0.86825297    -0.78800
C519        C  0.15500163  0.84312920  0.89904147     0.82000
N520        N  0.17902519  0.88103174  0.89855514    -0.78700
C521        C  0.17208585  0.91685271  0.86736587     0.82100
N522        N  0.14013655  0.91466064  0.83722566    -0.80400
C523        C  0.09029362  0.63101170  0.57382252     0.79600
N524        N  0.12097473  0.59692615  0.57343199    -0.78800
C525        C  0.12252972  0.56349497  0.60768256     0.82000
N526        N  0.09277197  0.56458731  0.64296305    -0.79700
C527        C  0.06129180  0.59777266  0.64392266     0.82100
N528        N  0.06103691  0.63134570  0.60963749    -0.80400
O529        O  0.05141368  0.59357535  0.72298705    -0.75100
O530        O  0.49001534  0.63353033  0.82705140    -0.75100
O531        O  0.99226624  0.55995984  0.79036610    -0.75200
O532        O  0.05231465  0.66809053  0.75868671    -0.75200
O533        O  0.49522045  0.69337726  0.71821763    -0.75200
O534        O  0.43370065  0.58391820  0.75111360    -0.75100
O535        O  0.43348772  0.65911152  0.78577719    -0.75100
O536        O  0.99366708  0.61896127  0.68285961    -0.75200
Ni537      Ni  0.02357607  0.61314900  0.77623537     1.25400
Ni538      Ni  0.46199204  0.63988450  0.73305547     1.25400
C539        C  0.03368823  0.60243867  0.68529793     0.87100
C540        C  0.44886519  0.64770030  0.82401727     0.87000
C541        C  0.45130433  0.55636299  0.78067714     0.87000
C542        C  0.53639516  0.69592220  0.72849501     0.87200
O543        O  0.10853134  0.66699920  0.50026824    -0.75100
O544        O  0.16294078  0.76533134  0.92442516    -0.75100
O545        O  0.19092179  0.69790603  0.99064264    -0.75200
O546        O  0.08111371  0.73589285  0.93520642    -0.75200
O547        O  0.06532072  0.77621320  0.48964896    -0.75200
O548        O  0.17622646  0.74437240  0.53956085    -0.75100
O549        O  0.14654191  0.80986579  0.97524729    -0.75100
O550        O  0.09474039  0.71024289  0.55279136    -0.75200
Ni551      Ni  0.13652941  0.71476778  0.96080998     1.25400
Ni552      Ni  0.12026528  0.76163492  0.51612726     1.25400
C553        C  0.09639874  0.67144379  0.54034152     0.87100
C554        C  0.15780426  0.80461772  0.93510302     0.87000
C555        C  0.19838861  0.71146244  0.02753649     0.87000
C556        C  0.05910735  0.76745376  0.95085813     0.87200
O557        O  0.30760114  0.97308068  0.59781665    -0.75100
O558        O  0.19456470  0.53729357  0.58126286    -0.75100
O559        O  0.27255273  0.55458138  0.61512858    -0.75200
O560        O  0.22909463  0.45781034  0.56546921    -0.75200
O561        O  0.20068585  0.92509400  0.62976255    -0.75200
O562        O  0.24723327  0.02159841  0.68055404    -0.75100
O563        O  0.16809499  0.50602854  0.64681751    -0.75100
O564        O  0.28125429  0.94019489  0.66279861    -0.75200
Ni565      Ni  0.25213017  0.50664144  0.58773630     1.25400
Ni566      Ni  0.22370805  0.97210463  0.65757429     1.25400
C567        C  0.31203262  0.94404554  0.63157436     0.87100
C568        C  0.16306763  0.53325338  0.61161772     0.87000
C569        C  0.26319847  0.05540937  0.65594750     0.87000
C570        C  0.20744419  0.92633064  0.58827122     0.87200
O571        O  0.48033049  0.90894753  0.69194736    -0.75100
O572        O  0.07548335  0.90810522  0.77408493    -0.75100
O573        O  0.06868135  0.88057737  0.69352818    -0.75200
O574        O  0.98814149  0.93435470  0.77248394    -0.75200
O575        O  0.46458950  0.86856360  0.80484967    -0.75200
O576        O  0.54501349  0.81607505  0.72864216    -0.75100
O577        O  0.05240285  0.84307324  0.80815937    -0.75100
O578        O  0.45811341  0.84279067  0.72397084    -0.75200
Ni579      Ni  0.02891133  0.91044937  0.73178999     1.25400
Ni580      Ni  0.50432620  0.84027042  0.76744009     1.25400
C581        C  0.45338869  0.87628258  0.69437630     0.87100
C582        C  0.07948884  0.87586878  0.80496734     0.87000
C583        C  0.07013622  0.83836276  0.69931046     0.87000
C584        C  0.96357874  0.91034437  0.80132153     0.87200
O585        O  0.18616754  0.99335908  0.87781432    -0.75100
O586        O  0.27294747  0.57935760  0.90779803    -0.75100
O587        O  0.22749248  0.56869312  0.83677523    -0.75200
O588        O  0.22710006  0.50568395  0.95018633    -0.75200
O589        O  0.27934925  0.95880535  0.92937489    -0.75200
O590        O  0.28562586  0.02759933  0.81553966    -0.75100
O591        O  0.32827872  0.53413371  0.88903710    -0.75100
O592        O  0.24326793  0.95200727  0.85543577    -0.75200
Ni593      Ni  0.22660896  0.53850022  0.89401557     1.25400
Ni594      Ni  0.28669098  0.99196992  0.87173404     1.25400
C595        C  0.20130221  0.95663636  0.86538760     0.87100
C596        C  0.31540374  0.57179718  0.90013013     0.87000
C597        C  0.25701746  0.05956617  0.80787703     0.87000
C598        C  0.24444683  0.96700482  0.95367957     0.87200
O599        O  0.34547941  0.72884086  0.96331845    -0.75100
O600        O  0.35320654  0.81929142  0.54137736    -0.75100
O601        O  0.37705622  0.81123374  0.95544533    -0.75200
O602        O  0.31963806  0.73767801  0.04749842    -0.75200
O603        O  0.38392782  0.70425876  0.56904976    -0.75200
O604        O  0.44258902  0.78551215  0.48195095    -0.75100
O605        O  0.41593071  0.78767758  0.56801184    -0.75100
O606        O  0.41312873  0.70324015  0.98380175    -0.75200
Ni607      Ni  0.34644741  0.77536578  0.00138807     1.25400
Ni608      Ni  0.41641639  0.74434474  0.52667261     1.25400
C609        C  0.37918446  0.70209358  0.95963340     0.87100
C610        C  0.38501764  0.81768535  0.56854761     0.87000
C611        C  0.41966734  0.80935585  0.45304583     0.87000
C612        C  0.34099671  0.70762735  0.57135126     0.87200
C613        C  0.17310376  0.43817135  0.99581812    -0.02500
C614        C  0.21941951  0.93156431  0.98234870     0.07200
C615        C  0.24078616  0.89228535  0.00098113    -0.02600
C616        C  0.22297430  0.87145124  0.54171321    -0.02600
C617        C  0.18862943  0.89366855  0.56342899     0.07300
C618        C  0.15660340  0.41521720  0.53602890    -0.02800
Br619      Br  0.10010706  0.43229345  0.56290747    -0.01400
Br620      Br  0.13310222  0.47996673  0.96393875    -0.01400
Br621      Br  0.25435977  0.82455834  0.57520877    -0.01400
Br622      Br  0.29217433  0.86786185  0.97213163    -0.01400
C623        C  0.29922725  0.09832087  0.74391592    -0.02500
C624        C  0.25780506  0.08594807  0.76486531     0.07200
C625        C  0.21849847  0.59521857  0.74158197    -0.02600
C626        C  0.22383902  0.60704537  0.69612885    -0.02600
C627        C  0.26524921  0.09670717  0.67519171     0.07300
C628        C  0.30388857  0.10194616  0.69806960    -0.02800
Br629      Br  0.36217468  0.10746515  0.66795007    -0.01400
Br630      Br  0.34465958  0.11676251  0.77795419    -0.01400
Br631      Br  0.17358563  0.62636531  0.66244868    -0.01400
Br632      Br  0.15901426  0.58699658  0.76916828    -0.01400
C633        C  0.00112468  0.78238732  0.89289198    -0.02500
C634        C  0.02841757  0.79737266  0.92424813     0.07200
C635        C  0.01961790  0.84051231  0.43638098    -0.02600
C636        C  0.47632026  0.85896319  0.43114670    -0.02600
C637        C  0.44427402  0.83287184  0.91578006     0.07300
C638        C  0.45910316  0.80366887  0.88604607    -0.02800
Br639      Br  0.41547754  0.78132763  0.85051965    -0.01400
Br640      Br  0.01796157  0.73209903  0.86331447    -0.01400
Br641      Br  0.45465769  0.90409017  0.46637235    -0.01400
Br642      Br  0.06280482  0.87209913  0.46499779    -0.01400
C643        C  0.30012281  0.64433332  0.06802967    -0.02500
C644        C  0.31306199  0.67399999  0.09628101     0.07200
C645        C  0.27837775  0.69285871  0.62047794    -0.02600
C646        C  0.23760517  0.70319240  0.59981082    -0.02600
C647        C  0.23168715  0.68885242  0.05786834     0.07300
C648        C  0.25970009  0.65343518  0.04614591    -0.02800
Br649      Br  0.24462023  0.61776417  0.00155887    -0.01400
Br650      Br  0.34515891  0.60467774  0.04716783    -0.01400
Br651      Br  0.19235588  0.73639769  0.62969247    -0.01400
Br652      Br  0.29354759  0.71902115  0.67162767    -0.01400
C653        C  0.39600799  0.49328901  0.78876655    -0.02500
C654        C  0.42514731  0.52117681  0.80739071     0.07200
C655        C  0.94257946  0.50506005  0.84865627    -0.02600
C656        C  0.95412132  0.96046574  0.85484861    -0.02600
C657        C  0.43283033  0.93260519  0.82930515     0.07300
C658        C  0.39463805  0.94870461  0.80696350    -0.02800
Br659      Br  0.35650683  0.90733567  0.78441876    -0.01400
Br660      Br  0.36925797  0.50963247  0.73350003    -0.01400
Br661      Br  0.01445504  0.94673335  0.87416164    -0.01400
Br662      Br  0.96657250  0.54305014  0.88727699    -0.01400
C663        C  0.55435620  0.75103041  0.66122492    -0.02500
C664        C  0.56635179  0.72986419  0.70336612     0.07200
C665        C  0.10742964  0.74303405  0.72002843    -0.02600
C666        C  0.12638570  0.78367451  0.70129421    -0.02600
C667        C  0.60002881  0.81215898  0.67304111     0.07300
C668        C  0.57474406  0.79137223  0.64456004    -0.02800
Br669      Br  0.55576112  0.82527715  0.59151025    -0.01400
Br670      Br  0.51066928  0.72717540  0.62637137    -0.01400
Br671      Br  0.17712186  0.80823091  0.72574975    -0.01400
Br672      Br  0.13617338  0.71008965  0.76920537    -0.01400
C673        C  0.88007067  0.17025446  0.42642733     0.79600
N674        N  0.91381354  0.17262296  0.39395667    -0.78800
C675        C  0.91570194  0.14350490  0.36358484     0.82000
N676        N  0.88422440  0.11088776  0.36749858    -0.78700
C677        C  0.85029585  0.10756355  0.39956302     0.82100
N678        N  0.84791609  0.13827253  0.42846117    -0.80400
C679        C  0.91667591  0.37754939  0.16238947     0.79600
N680        N  0.91728147  0.34819180  0.13208477    -0.78800
C681        C  0.88522332  0.35040353  0.10126022     0.82000
N682        N  0.85223428  0.38222659  0.10141423    -0.78700
C683        C  0.85051416  0.41146126  0.13171757     0.82100
N684        N  0.88300386  0.40903985  0.16211875    -0.80400
C685        C  0.61546970  0.37730469  0.33743810     0.79600
N686        N  0.62335543  0.34188391  0.36824933    -0.78800
C687        C  0.65500993  0.34314051  0.39903687     0.82000
N688        N  0.67903320  0.38104323  0.39854781    -0.78700
C689        C  0.67209337  0.41686275  0.36735658     0.82100
N690        N  0.64014335  0.41466847  0.33721725    -0.80400
C691        C  0.59028983  0.13099771  0.07382535     0.79600
N692        N  0.62097273  0.09691320  0.07343652    -0.78800
C693        C  0.62253002  0.06348462  0.10768937     0.82000
N694        N  0.59277326  0.06457847  0.14297035    -0.79700
C695        C  0.56129127  0.09776278  0.14392838     0.82100
N696        N  0.56103419  0.13133300  0.10964083    -0.80400
O697        O  0.55141417  0.09356726  0.22299286    -0.75100
O698        O  0.99002043  0.13352505  0.32705784    -0.75100
O699        O  0.49226390  0.05995541  0.29037096    -0.75200
O700        O  0.55232111  0.16808166  0.25869432    -0.75200
O701        O  0.99522955  0.19337312  0.21822515    -0.75200
O702        O  0.93369908  0.08391918  0.25112004    -0.75100
O703        O  0.93349538  0.15911316  0.28578357    -0.75100
O704        O  0.49366877  0.11895726  0.18286570    -0.75200
Ni705      Ni  0.52357830  0.11314216  0.27624140     1.25400
Ni706      Ni  0.96199637  0.13988328  0.23306202     1.25400
C707        C  0.53368876  0.10243141  0.18530376     0.87100
C708        C  0.94887195  0.14769987  0.32402349     0.87000
C709        C  0.95130122  0.05636180  0.28068271     0.87000
C710        C  0.03640385  0.19591549  0.22850436     0.87200
O711        O  0.60852444  0.16698492  0.00026958    -0.75100
O712        O  0.66294974  0.26534358  0.42442338    -0.75100
O713        O  0.69092879  0.19791953  0.49064298    -0.75200
O714        O  0.58112237  0.23590537  0.43520303    -0.75200
O715        O  0.56531323  0.27619832  0.98965370    -0.75200
O716        O  0.67622137  0.24435868  0.03955978    -0.75100
O717        O  0.64655013  0.30987937  0.47524414    -0.75100
O718        O  0.59473619  0.21022789  0.05279370    -0.75200
Ni719      Ni  0.63653736  0.21478093  0.46080851     1.25400
Ni720      Ni  0.62025911  0.26162032  0.01612952     1.25400
C721        C  0.59639385  0.17142897  0.04034352     0.87100
C722        C  0.65781320  0.30463019  0.43510013     0.87000
C723        C  0.69839401  0.21147557  0.52753758     0.87000
C724        C  0.55911499  0.26746636  0.45085356     0.87200
O725        O  0.80760319  0.47306924  0.09782214    -0.75100
O726        O  0.69456709  0.03728520  0.08127053    -0.75100
O727        O  0.77255980  0.05457204  0.11513134    -0.75200
O728        O  0.72909420  0.95780129  0.06547865    -0.75200
O729        O  0.70068567  0.42508765  0.12977309    -0.75200
O730        O  0.74724306  0.52159243  0.18055915    -0.75100
O731        O  0.66809953  0.00602334  0.14682716    -0.75100
O732        O  0.78125746  0.44018587  0.16280548    -0.75200
Ni733      Ni  0.75213258  0.00663181  0.08774274     1.25400
Ni734      Ni  0.72371262  0.47209816  0.15758264     1.25400
C735        C  0.81203457  0.44403470  0.13158017     0.87100
C736        C  0.66307043  0.03324559  0.11162580     0.87000
C737        C  0.76320942  0.55540193  0.15595066     0.87000
C738        C  0.70744217  0.42632355  0.08828154     0.87200
O739        O  0.98033523  0.40893705  0.19194295    -0.75100
O740        O  0.57548779  0.40810725  0.27407863    -0.75100
O741        O  0.56868776  0.38057016  0.19352602    -0.75200
O742        O  0.48814483  0.43435279  0.27247577    -0.75200
O743        O  0.96459713  0.36856240  0.30484816    -0.75200
O744        O  0.04502062  0.31606930  0.22864441    -0.75100
O745        O  0.55241070  0.34307589  0.30815743    -0.75100
O746        O  0.95811915  0.34278228  0.22397300    -0.75200
Ni747      Ni  0.52891565  0.41044508  0.23178428     1.25400
Ni748      Ni  0.00433334  0.34026709  0.26744058     1.25400
C749        C  0.95339316  0.37627189  0.19437594     0.87100
C750        C  0.57949519  0.37587241  0.30496284     0.87000
C751        C  0.57014444  0.33835560  0.19931221     0.87000
C752        C  0.46358436  0.41034343  0.30131609     0.87200
O753        O  0.68617415  0.49336914  0.37780511    -0.75100
O754        O  0.77295241  0.07936298  0.40780103    -0.75100
O755        O  0.72750072  0.06870601  0.33677417    -0.75200
O756        O  0.72710344  0.00568593  0.45018065    -0.75200
O757        O  0.77935496  0.45880990  0.42936686    -0.75200
O758        O  0.78563430  0.52761292  0.31553707    -0.75100
O759        O  0.82828392  0.03414069  0.38903708    -0.75100
O760        O  0.74327498  0.45201855  0.35542567    -0.75200
Ni761      Ni  0.72661466  0.03850785  0.39401253     1.25400
Ni762      Ni  0.78669757  0.49197922  0.37172878     1.25400
C763        C  0.70130913  0.45664697  0.36537733     0.87100
C764        C  0.81540865  0.07180294  0.40013282     0.87000
C765        C  0.75702651  0.55958041  0.30787587     0.87000
C766        C  0.74445191  0.46700705  0.45367164     0.87200
O767        O  0.84548435  0.22884780  0.46331863    -0.75100
O768        O  0.85320283  0.31928142  0.04138080    -0.75100
O769        O  0.87706125  0.31124096  0.45544341    -0.75200
O770        O  0.81964173  0.23768682  0.54749774    -0.75200
O771        O  0.88392386  0.20424861  0.06904921    -0.75200
O772        O  0.94258389  0.28550230  0.98195129    -0.75100
O773        O  0.91592766  0.28766638  0.06801285    -0.75100
O774        O  0.91313388  0.20324869  0.48380289    -0.75200
Ni775      Ni  0.84645182  0.27537408  0.50138669     1.25400
Ni776      Ni  0.91641208  0.24433472  0.02667241     1.25400
C777        C  0.87918966  0.20210058  0.45963480     0.87100
C778        C  0.88501443  0.31767431  0.06855021     0.87000
C779        C  0.91966230  0.30934705  0.95304702     0.87000
C780        C  0.84099293  0.20761783  0.07135127     0.87200
C781        C  0.67310959  0.93816834  0.49580640    -0.02500
C782        C  0.71942610  0.43156438  0.48233853     0.07200
C783        C  0.74079553  0.39228822  0.50097334    -0.02600
C784        C  0.72296290  0.37144567  0.04171936    -0.02600
C785        C  0.68862179  0.39366479  0.06343860     0.07300
C786        C  0.65659653  0.91521936  0.03604021    -0.02800
Br787      Br  0.60010331  0.93230155  0.06292187    -0.01400
Br788      Br  0.63310538  0.97995830  0.46392402    -0.01400
Br789      Br  0.75434195  0.32454288  0.07520756    -0.01400
Br790      Br  0.79218138  0.36786369  0.47212153    -0.01400
C791        C  0.79923592  0.59833435  0.24391464    -0.02500
C792        C  0.75781381  0.58596230  0.26486445     0.07200
C793        C  0.71850759  0.09522362  0.24157851    -0.02600
C794        C  0.72384953  0.10704287  0.19612487    -0.02600
C795        C  0.76526087  0.59670182  0.17519145     0.07300
C796        C  0.80389960  0.60194707  0.19806876    -0.02800
Br797      Br  0.86218648  0.60746627  0.16795019    -0.01400
Br798      Br  0.84466421  0.61678731  0.27795116    -0.01400
Br799      Br  0.67359639  0.12635169  0.16244079    -0.01400
Br800      Br  0.65902319  0.08699193  0.26916134    -0.01400
C801        C  0.50112856  0.28239403  0.39289020    -0.02500
C802        C  0.52842352  0.29738257  0.42424280     0.07200
C803        C  0.51961199  0.34050148  0.93638878    -0.02600
C804        C  0.97631511  0.35895394  0.93115166    -0.02600
C805        C  0.94427870  0.33287969  0.41577817     0.07300
C806        C  0.95910701  0.30367557  0.38604505    -0.02800
Br807      Br  0.91548155  0.28133578  0.35051756    -0.01400
Br808      Br  0.51796324  0.23210247  0.36331699    -0.01400
Br809      Br  0.95465004  0.40407748  0.96638061    -0.01400
Br810      Br  0.56279547  0.37208365  0.96501509    -0.01400
C811        C  0.80012494  0.14434243  0.56803198    -0.02500
C812        C  0.81306622  0.17400928  0.59628228     0.07200
C813        C  0.77837272  0.19284930  0.12047563    -0.02600
C814        C  0.73759975  0.20318032  0.09980853    -0.02600
C815        C  0.73169123  0.18886426  0.55787038     0.07300
C816        C  0.75970156  0.15344477  0.54614939    -0.02800
Br817      Br  0.74461535  0.11776901  0.50156843    -0.01400
Br818      Br  0.84515723  0.10468148  0.54717345    -0.01400
Br819      Br  0.69234761  0.23638297  0.12969091    -0.01400
Br820      Br  0.79354250  0.21902099  0.17161995    -0.01400
C821        C  0.89600432  0.99328832  0.28877152    -0.02500
C822        C  0.92514238  0.02117673  0.30739656     0.07200
C823        C  0.44257803  0.00505732  0.34865959    -0.02600
C824        C  0.45412809  0.46046492  0.35484399    -0.02600
C825        C  0.93283739  0.43260446  0.32930021     0.07300
C826        C  0.89464252  0.44870139  0.30696171    -0.02800
Br827      Br  0.85651832  0.40733022  0.28441083    -0.01400
Br828      Br  0.86924334  0.00963663  0.23351169    -0.01400
Br829      Br  0.51446634  0.44673842  0.37414763    -0.01400
Br830      Br  0.46657148  0.04304567  0.38728176    -0.01400
C831        C  0.05437299  0.25101994  0.16123400    -0.02500
C832        C  0.06636248  0.22985698  0.20337845     0.07200
C833        C  0.60743654  0.24302861  0.22004455    -0.02600
C834        C  0.62639526  0.28366752  0.20130903    -0.02600
C835        C  0.10004372  0.31214947  0.17305049     0.07300
C836        C  0.07476606  0.29135858  0.14456728    -0.02800
Br837      Br  0.05581088  0.32525092  0.09150036    -0.01400
Br838      Br  0.01068799  0.22716465  0.12637873    -0.01400
Br839      Br  0.67712769  0.30822539  0.22576871    -0.01400
Br840      Br  0.63617141  0.21008887  0.26922951    -0.01400
C841        C  0.88006516  0.17024900  0.92642416     0.79600
N842        N  0.91380707  0.17261948  0.89395256    -0.78800
C843        C  0.91569534  0.14350280  0.86357928     0.82000
N844        N  0.88421884  0.11088439  0.86749333    -0.78700
C845        C  0.85029087  0.10755852  0.89955854     0.82100
N846        N  0.84791134  0.13826647  0.92845774    -0.80400
C847        C  0.91667415  0.37756194  0.66238726     0.79600
N848        N  0.91728179  0.34820427  0.63208279    -0.78800
C849        C  0.88522503  0.35041623  0.60125630     0.82000
N850        N  0.85223610  0.38223877  0.60140913    -0.78700
C851        C  0.85051386  0.41147367  0.63171240     0.82100
N852        N  0.88300220  0.40905209  0.66211540    -0.80400
C853        C  0.61546293  0.37729706  0.83744354     0.79600
N854        N  0.62334781  0.34187459  0.86825288    -0.78800
C855        C  0.65500180  0.34312902  0.89904139     0.82000
N856        N  0.67902527  0.38103129  0.89855521    -0.78700
C857        C  0.67208611  0.41685244  0.86736577     0.82100
N858        N  0.64013689  0.41466029  0.83722553    -0.80400
C859        C  0.59029376  0.13101172  0.57382215     0.79600
N860        N  0.62097484  0.09692596  0.57343157    -0.78800
C861        C  0.62252958  0.06349492  0.60768236     0.82000
N862        N  0.59277198  0.06458736  0.64296262    -0.79700
C863        C  0.56129172  0.09777274  0.64392232     0.82100
N864        N  0.56103714  0.13134579  0.60963701    -0.80400
O865        O  0.55141367  0.09357526  0.72298669    -0.75100
O866        O  0.99001533  0.13353040  0.82705113    -0.75100
O867        O  0.49226605  0.05995987  0.79036587    -0.75200
O868        O  0.55231471  0.16809034  0.75868639    -0.75200
O869        O  0.99522064  0.19337734  0.71821735    -0.75200
O870        O  0.93370059  0.08391832  0.75111324    -0.75100
O871        O  0.93348764  0.15911163  0.78577706    -0.75100
O872        O  0.49366717  0.11896150  0.68285917    -0.75200
Ni873      Ni  0.52357606  0.11314893  0.77623498     1.25400
Ni874      Ni  0.96199201  0.13988464  0.73305516     1.25400
C875        C  0.53368820  0.10243867  0.68529742     0.87100
C876        C  0.94886512  0.14770037  0.82401712     0.87000
C877        C  0.95130403  0.05636314  0.78067695     0.87000
C878        C  0.03639524  0.19592213  0.72849457     0.87200
O879        O  0.60853167  0.16699916  0.50026782    -0.75100
O880        O  0.66294044  0.26533105  0.92442513    -0.75100
O881        O  0.69092129  0.19790563  0.99064242    -0.75200
O882        O  0.58111338  0.23589269  0.93520633    -0.75200
O883        O  0.56532121  0.27621341  0.48964848    -0.75200
O884        O  0.67622700  0.24437222  0.53956042    -0.75100
O885        O  0.64654162  0.30986561  0.97524719    -0.75100
O886        O  0.59474075  0.21024280  0.55279099    -0.75200
Ni887      Ni  0.63652901  0.21476751  0.96080990     1.25400
Ni888      Ni  0.62026585  0.26163484  0.51612695     1.25400
C889        C  0.59639902  0.17144368  0.54034110     0.87100
C890        C  0.65780421  0.30461728  0.93510296     0.87000
C891        C  0.69838815  0.21146219  0.02753624     0.87000
C892        C  0.55910702  0.26745359  0.95085812     0.87200
O893        O  0.80760152  0.47308073  0.59781695    -0.75100
O894        O  0.69456453  0.03729331  0.58126252    -0.75100
O895        O  0.77255270  0.05458132  0.61512806    -0.75200
O896        O  0.72909462  0.95781005  0.56546926    -0.75200
O897        O  0.70068619  0.42509412  0.62976282    -0.75200
O898        O  0.74723372  0.52159837  0.68055456    -0.75100
O899        O  0.66809487  0.00602864  0.64681734    -0.75100
O900        O  0.78125477  0.44019488  0.66279889    -0.75200
Ni901      Ni  0.75212999  0.00664123  0.58773618     1.25400
Ni902      Ni  0.72370841  0.47210471  0.65757461     1.25400
C903        C  0.81203310  0.44404565  0.63157463     0.87100
C904        C  0.66306764  0.03325338  0.61161733     0.87000
C905        C  0.76319888  0.55540941  0.65594789     0.87000
C906        C  0.70744452  0.42633091  0.58827148     0.87200
O907        O  0.98033102  0.40894743  0.69194749    -0.75100
O908        O  0.57548368  0.40810508  0.77408472    -0.75100
O909        O  0.56868167  0.38057727  0.69352801    -0.75200
O910        O  0.48814190  0.43435453  0.77248389    -0.75200
O911        O  0.96459002  0.36856338  0.80484992    -0.75200
O912        O  0.04501378  0.31607492  0.72864217    -0.75100
O913        O  0.55240319  0.34307307  0.80815905    -0.75100
O914        O  0.95811372  0.34279063  0.72397096    -0.75200
Ni915      Ni  0.52891163  0.41044926  0.73178992     1.25400
Ni916      Ni  0.00432665  0.34027020  0.76744022     1.25400
C917        C  0.95338907  0.37628254  0.69437655     0.87100
C918        C  0.57948920  0.37586836  0.80496710     0.87000
C919        C  0.57013635  0.33836269  0.69931019     0.87000
C920        C  0.46357923  0.41034420  0.80132156     0.87200
O921        O  0.68616784  0.49335861  0.87781454    -0.75100
O922        O  0.77294737  0.07935779  0.90779734    -0.75100
O923        O  0.72749232  0.06869305  0.83677455    -0.75200
O924        O  0.72709986  0.00568435  0.95018562    -0.75200
O925        O  0.77934940  0.45880457  0.92937497    -0.75200
O926        O  0.78562630  0.52759931  0.81553997    -0.75100
O927        O  0.82827864  0.03413385  0.88903647    -0.75100
O928        O  0.74326822  0.45200700  0.85543572    -0.75200
Ni929      Ni  0.72660883  0.03850035  0.89401488     1.25400
Ni930      Ni  0.78669125  0.49196964  0.87173429     1.25400
C931        C  0.70130249  0.45663597  0.86538768     0.87100
C932        C  0.81540360  0.07179735  0.90012949     0.87000
C933        C  0.75701762  0.55956607  0.80787742     0.87000
C934        C  0.74444712  0.46700420  0.95367983     0.87200
O935        O  0.84547912  0.22884063  0.96331847    -0.75100
O936        O  0.85320704  0.31929186  0.54137724    -0.75100
O937        O  0.87705589  0.31123334  0.95544563    -0.75200
O938        O  0.81963746  0.23767754  0.04749847    -0.75200
O939        O  0.88392831  0.20425913  0.56904955    -0.75200
O940        O  0.94258932  0.28551253  0.48195066    -0.75100
O941        O  0.91593114  0.28767797  0.56801173    -0.75100
O942        O  0.91312836  0.20323973  0.98380191    -0.75200
Ni943      Ni  0.84644703  0.27536542  0.00138833     1.25400
Ni944      Ni  0.91641681  0.24434517  0.52667232     1.25400
C945        C  0.87918417  0.20209338  0.95963343     0.87100
C946        C  0.88501815  0.31768575  0.56854747     0.87000
C947        C  0.91966766  0.30935612  0.45304556     0.87000
C948        C  0.84099721  0.20762760  0.57135116     0.87200
C949        C  0.67310396  0.93817168  0.99581788    -0.02500
C950        C  0.71941948  0.43156355  0.98234851     0.07200
C951        C  0.74078591  0.39228463  0.00098114    -0.02600
C952        C  0.72297473  0.37145153  0.54171341    -0.02600
C953        C  0.68862982  0.39366882  0.56342918     0.07300
C954        C  0.65660323  0.91521693  0.53602925    -0.02800
Br955      Br  0.60010699  0.93229332  0.56290784    -0.01400
Br956      Br  0.63310225  0.97996699  0.96393863    -0.01400
Br957      Br  0.75436041  0.32455876  0.57520908    -0.01400
Br958      Br  0.79217338  0.36786042  0.97213126    -0.01400
C959        C  0.79922747  0.59832097  0.74391644    -0.02500
C960        C  0.75780531  0.58594813  0.76486570     0.07200
C961        C  0.71849858  0.09521870  0.74158122    -0.02600
C962        C  0.72383922  0.10704567  0.69612816    -0.02600
C963        C  0.76524955  0.59670718  0.67519214     0.07300
C964        C  0.80388892  0.60194628  0.69807009    -0.02800
Br965      Br  0.86217504  0.60746558  0.66795066    -0.01400
Br966      Br  0.84465939  0.61676361  0.77795457    -0.01400
Br967      Br  0.67358586  0.12636554  0.66244792    -0.01400
Br968      Br  0.65901429  0.08699652  0.76916734    -0.01400
C969        C  0.50112469  0.28238758  0.89289182    -0.02500
C970        C  0.52841754  0.29737279  0.92424803     0.07200
C971        C  0.51961836  0.34051227  0.43638047    -0.02600
C972        C  0.97632060  0.35896339  0.43114636    -0.02600
C973        C  0.94427386  0.33287157  0.91578059     0.07300
C974        C  0.95910308  0.30366872  0.88604646    -0.02800
Br975      Br  0.91547752  0.28132743  0.85051998    -0.01400
Br976      Br  0.51796193  0.23209983  0.86331351    -0.01400
Br977      Br  0.95465802  0.40409037  0.46637200    -0.01400
Br978      Br  0.56280547  0.37209933  0.46499684    -0.01400
C979        C  0.80012224  0.14433293  0.06802981    -0.02500
C980        C  0.81306145  0.17399955  0.09628124     0.07200
C981        C  0.77837834  0.19285891  0.62047762    -0.02600
C982        C  0.73760568  0.20319235  0.59981056    -0.02600
C983        C  0.73168654  0.18885205  0.05786821     0.07300
C984        C  0.75969957  0.15343490  0.04614582    -0.02800
Br985      Br  0.74462015  0.11776401  0.00155849    -0.01400
Br986      Br  0.84515830  0.10467717  0.04716814    -0.01400
Br987      Br  0.69235648  0.23639786  0.62969209    -0.01400
Br988      Br  0.79354825  0.21902166  0.67162709    -0.01400
C989        C  0.89600776  0.99328921  0.78876610    -0.02500
C990        C  0.92514698  0.02117696  0.80739037     0.07200
C991        C  0.44257886  0.00506023  0.84865595    -0.02600
C992        C  0.45412194  0.46046553  0.85484870    -0.02600
C993        C  0.93283087  0.43260500  0.82930544     0.07300
C994        C  0.89463851  0.44870437  0.80696387    -0.02800
Br995      Br  0.85650742  0.40733540  0.78441908    -0.01400
Br996      Br  0.86925837  0.00963232  0.73349918    -0.01400
Br997      Br  0.51445578  0.44673319  0.87416143    -0.01400
Br998      Br  0.46657148  0.04305030  0.88727691    -0.01400
C999        C  0.05435654  0.25103033  0.66122476    -0.02500
C1000       C  0.06635201  0.22986407  0.70336601     0.07200
C1001       C  0.60742972  0.24303407  0.72002820    -0.02600
C1002       C  0.62638590  0.28367442  0.70129381    -0.02600
C1003       C  0.10002915  0.31215877  0.67304129     0.07300
C1004       C  0.07474448  0.29137213  0.64456004    -0.02800
Br1005     Br  0.05576111  0.32527753  0.59151064    -0.01400
Br1006     Br  0.01066980  0.22717550  0.62637101    -0.01400
Br1007     Br  0.67712210  0.30823078  0.72574936    -0.01400
Br1008     Br  0.63617304  0.21009006  0.76920566    -0.01400
C1009       C  0.88007060  0.67025435  0.42642735     0.79600
N1010       N  0.91381358  0.67262277  0.39395673    -0.78800
C1011       C  0.91570200  0.64350488  0.36358479     0.82000
N1012       N  0.88422448  0.61088774  0.36749825    -0.78700
C1013       C  0.85029587  0.60756355  0.39956278     0.82100
N1014       N  0.84791605  0.63827240  0.42846094    -0.80400
C1015       C  0.91667586  0.87754953  0.16238946     0.79600
N1016       N  0.91728176  0.84819186  0.13208481    -0.78800
C1017       C  0.88522341  0.85040383  0.10125998     0.82000
N1018       N  0.85223451  0.88222654  0.10141424    -0.78700
C1019       C  0.85051416  0.91146140  0.13171746     0.82100
N1020       N  0.88300391  0.90903982  0.16211885    -0.80400
C1021       C  0.61546965  0.87730452  0.33743848     0.79600
N1022       N  0.62335536  0.84188389  0.36824960    -0.78800
C1023       C  0.65500962  0.84314052  0.39903735     0.82000
N1024       N  0.67903308  0.88104332  0.39854818    -0.78700
C1025       C  0.67209338  0.91686266  0.36735691     0.82100
N1026       N  0.64014346  0.91466840  0.33721747    -0.80400
C1027       C  0.59029033  0.63099790  0.07382485     0.79600
N1028       N  0.62097291  0.59691326  0.07343617    -0.78800
C1029       C  0.62253041  0.56348482  0.10768874     0.82000
N1030       N  0.59277329  0.56457859  0.14297008    -0.79700
C1031       C  0.56129175  0.59776300  0.14392790     0.82100
N1032       N  0.56103456  0.63133321  0.10964054    -0.80400
O1033       O  0.55141433  0.59356722  0.22299261    -0.75100
O1034       O  0.99002050  0.63352516  0.32705779    -0.75100
O1035       O  0.49226414  0.55995548  0.29037070    -0.75200
O1036       O  0.55232164  0.66808134  0.25869426    -0.75200
O1037       O  0.99522957  0.69337331  0.21822524    -0.75200
O1038       O  0.93369926  0.58391933  0.25111983    -0.75100
O1039       O  0.93349546  0.65911317  0.28578348    -0.75100
O1040       O  0.49366919  0.61895763  0.18286536    -0.75200
Ni1041     Ni  0.52357869  0.61314209  0.27624122     1.25400
Ni1042     Ni  0.96199648  0.63988340  0.23306191     1.25400
C1043       C  0.53368908  0.60243169  0.18530356     0.87100
C1044       C  0.94887210  0.64770004  0.32402341     0.87000
C1045       C  0.95130118  0.55636200  0.28068257     0.87000
C1046       C  0.03640388  0.69591548  0.22850415     0.87200
O1047       O  0.60852486  0.66698502  0.00026923    -0.75100
O1048       O  0.66294929  0.76534366  0.42442383    -0.75100
O1049       O  0.69092836  0.69791971  0.49064338    -0.75200
O1050       O  0.58112182  0.73590554  0.43520349    -0.75200
O1051       O  0.56531357  0.77619853  0.98965330    -0.75200
O1052       O  0.67622181  0.74435893  0.03955935    -0.75100
O1053       O  0.64654970  0.80987950  0.47524452    -0.75100
O1054       O  0.59473666  0.71022820  0.05279319    -0.75200
Ni1055     Ni  0.63653683  0.71478104  0.46080892     1.25400
Ni1056     Ni  0.62025954  0.76162056  0.01612898     1.25400
C1057       C  0.59639417  0.67142923  0.04034317     0.87100
C1058       C  0.65781280  0.80463033  0.43510054     0.87000
C1059       C  0.69839352  0.71147566  0.52753796     0.87000
C1060       C  0.55911454  0.76746652  0.45085398     0.87200
O1061       O  0.80760303  0.97306929  0.09782216    -0.75100
O1062       O  0.69456710  0.53728497  0.08127002    -0.75100
O1063       O  0.77255979  0.55457223  0.11513097    -0.75200
O1064       O  0.72909439  0.45780088  0.06547862    -0.75200
O1065       O  0.70068564  0.92508754  0.12977299    -0.75200
O1066       O  0.74724286  0.02159231  0.18055953    -0.75100
O1067       O  0.66809968  0.50602355  0.14682686    -0.75100
O1068       O  0.78125741  0.94018583  0.16280551    -0.75200
Ni1069     Ni  0.75213261  0.50663168  0.08774255     1.25400
Ni1070     Ni  0.72371255  0.97209805  0.15758278     1.25400
C1071       C  0.81203457  0.94403472  0.13158027     0.87100
C1072       C  0.66307036  0.53324551  0.11162566     0.87000
C1073       C  0.76320928  0.05540179  0.15595103     0.87000
C1074       C  0.70744215  0.92632379  0.08828133     0.87200
O1075       O  0.98033523  0.90893718  0.19194301    -0.75100
O1076       O  0.57548794  0.90810716  0.27407897    -0.75100
O1077       O  0.56868806  0.88057020  0.19352620    -0.75200
O1078       O  0.48814496  0.93435263  0.27247595    -0.75200
O1079       O  0.96459738  0.86856230  0.30484827    -0.75200
O1080       O  0.04502048  0.81606942  0.22864431    -0.75100
O1081       O  0.55241092  0.84307567  0.30815752    -0.75100
O1082       O  0.95811905  0.84278238  0.22397296    -0.75200
Ni1083     Ni  0.52891587  0.91044497  0.23178451     1.25400
Ni1084     Ni  0.00433348  0.84026718  0.26744051     1.25400
C1085       C  0.95339311  0.87627204  0.19437604     0.87100
C1086       C  0.57949542  0.87587232  0.30496299     0.87000
C1087       C  0.57014480  0.83835559  0.19931247     0.87000
C1088       C  0.46358469  0.91034320  0.30131637     0.87200
O1089       O  0.68617413  0.99336911  0.37780556    -0.75100
O1090       O  0.77295240  0.57936317  0.40780053    -0.75100
O1091       O  0.72750083  0.56870594  0.33677366    -0.75200
O1092       O  0.72710338  0.50568619  0.45018032    -0.75200
O1093       O  0.77935487  0.95880958  0.42936712    -0.75200
O1094       O  0.78563433  0.02761329  0.31553738    -0.75100
O1095       O  0.82828403  0.53414090  0.38903661    -0.75100
O1096       O  0.74327493  0.95201866  0.35542575    -0.75200
Ni1097     Ni  0.72661468  0.53850791  0.39401212     1.25400
Ni1098     Ni  0.78669749  0.99197923  0.37172905     1.25400
C1099       C  0.70130910  0.95664705  0.36537758     0.87100
C1100       C  0.81540873  0.57180303  0.40013244     0.87000
C1101       C  0.75702627  0.05958052  0.30787624     0.87000
C1102       C  0.74445184  0.96700675  0.45367190     0.87200
O1103       O  0.84548423  0.72884760  0.46331883    -0.75100
O1104       O  0.85320300  0.81928159  0.04138059    -0.75100
O1105       O  0.87706106  0.81124061  0.45544371    -0.75200
O1106       O  0.81964141  0.73768661  0.54749784    -0.75200
O1107       O  0.88392415  0.70424877  0.06904909    -0.75200
O1108       O  0.94258419  0.78550248  0.98195113    -0.75100
O1109       O  0.91592787  0.78766668  0.06801274    -0.75100
O1110       O  0.91313365  0.70324831  0.48380329    -0.75200
Ni1111     Ni  0.84645156  0.77537375  0.50138680     1.25400
Ni1112     Ni  0.91641230  0.74433496  0.02667231     1.25400
C1113       C  0.87918949  0.70210036  0.45963500     0.87100
C1114       C  0.88501482  0.81767438  0.06855017     0.87000
C1115       C  0.91966253  0.80934727  0.95304688     0.87000
C1116       C  0.84099310  0.70761808  0.07135114     0.87200
C1117       C  0.67310972  0.43816867  0.49580619    -0.02500
C1118       C  0.71942589  0.93156398  0.48233864     0.07200
C1119       C  0.74079529  0.89228780  0.50097344    -0.02600
C1120       C  0.72296313  0.87144611  0.04171922    -0.02600
C1121       C  0.68862186  0.89366512  0.06343834     0.07300
C1122       C  0.65659646  0.41521907  0.03604054    -0.02800
Br1123     Br  0.60010337  0.43230135  0.06292220    -0.01400
Br1124     Br  0.63310552  0.47995869  0.46392377    -0.01400
Br1125     Br  0.75434220  0.82454346  0.07520746    -0.01400
Br1126     Br  0.79218070  0.86786289  0.47212123    -0.01400
C1127       C  0.79923572  0.09833463  0.24391503    -0.02500
C1128       C  0.75781360  0.08596262  0.26486497     0.07200
C1129       C  0.71850779  0.59522357  0.24157802    -0.02600
C1130       C  0.72384974  0.60704303  0.19612441    -0.02600
C1131       C  0.76526070  0.09670167  0.17519193     0.07300
C1132       C  0.80389940  0.10194714  0.19806915    -0.02800
Br1133     Br  0.86218624  0.10746604  0.16795051    -0.01400
Br1134     Br  0.84466399  0.11678806  0.27795124    -0.01400
Br1135     Br  0.67359661  0.62635173  0.16244039    -0.01400
Br1136     Br  0.65902339  0.58699188  0.26916095    -0.01400
C1137       C  0.50112834  0.78239440  0.39289040    -0.02500
C1138       C  0.52842323  0.79738285  0.42424321     0.07200
C1139       C  0.51961204  0.84050145  0.93638825    -0.02600
C1140       C  0.97631533  0.85895393  0.93115166    -0.02600
C1141       C  0.94427842  0.83287924  0.41577841     0.07300
C1142       C  0.95910690  0.80367527  0.38604519    -0.02800
Br1143     Br  0.91548134  0.78133530  0.35051781    -0.01400
Br1144     Br  0.51796346  0.73210332  0.36331668    -0.01400
Br1145     Br  0.95465031  0.90407772  0.96638034    -0.01400
Br1146     Br  0.56279546  0.87208391  0.96501446    -0.01400
C1147       C  0.80012424  0.64434233  0.56803240    -0.02500
C1148       C  0.81306556  0.67400919  0.59628266     0.07200
C1149       C  0.77837285  0.69284944  0.12047525    -0.02600
C1150       C  0.73759999  0.70318051  0.09980812    -0.02600
C1151       C  0.73169071  0.68886437  0.55787072     0.07300
C1152       C  0.75970100  0.65344489  0.54614963    -0.02800
Br1153     Br  0.74461493  0.61776944  0.50156840    -0.01400
Br1154     Br  0.84515649  0.60468126  0.54717405    -0.01400
Br1155     Br  0.69234809  0.73638344  0.12969047    -0.01400
Br1156     Br  0.79354282  0.71902128  0.17161942    -0.01400
C1157       C  0.89600422  0.49328846  0.28877113    -0.02500
C1158       C  0.92514223  0.52117685  0.30739636     0.07200
C1159       C  0.44257782  0.50505755  0.34865944    -0.02600
C1160       C  0.45412812  0.96046462  0.35484426    -0.02600
C1161       C  0.93283768  0.93260438  0.32930052     0.07300
C1162       C  0.89464271  0.94870126  0.30696214    -0.02800
Br1163     Br  0.85651874  0.90732974  0.28441140    -0.01400
Br1164     Br  0.86924390  0.50963670  0.23351093    -0.01400
Br1165     Br  0.51446624  0.94673794  0.37414820    -0.01400
Br1166     Br  0.46657112  0.54304588  0.38728175    -0.01400
C1167       C  0.05437301  0.75101990  0.16123379    -0.02500
C1168       C  0.06636247  0.72985708  0.20337835     0.07200
C1169       C  0.60743698  0.74302871  0.22004482    -0.02600
C1170       C  0.62639571  0.78366762  0.20130932    -0.02600
C1171       C  0.10004353  0.81214951  0.17305036     0.07300
C1172       C  0.07476581  0.79135870  0.14456717    -0.02800
Br1173     Br  0.05580938  0.82525137  0.09150091    -0.01400
Br1174     Br  0.01068826  0.72716425  0.12637850    -0.01400
Br1175     Br  0.67712783  0.80822583  0.22576932    -0.01400
Br1176     Br  0.63617126  0.71008958  0.26923049    -0.01400
C1177       C  0.88006518  0.67024911  0.92642423     0.79600
N1178       N  0.91380725  0.67261939  0.89395273    -0.78800
C1179       C  0.91569544  0.64350273  0.86357950     0.82000
N1180       N  0.88421912  0.61088413  0.86749368    -0.78700
C1181       C  0.85029112  0.60755830  0.89955903     0.82100
N1182       N  0.84791153  0.63826632  0.92845801    -0.80400
C1183       C  0.91667411  0.87756186  0.66238732     0.79600
N1184       N  0.91728163  0.84820397  0.63208298    -0.78800
C1185       C  0.88522457  0.85041599  0.60125643     0.82000
N1186       N  0.85223600  0.88223856  0.60140935    -0.78700
C1187       C  0.85051365  0.91147350  0.63171257     0.82100
N1188       N  0.88300222  0.90905191  0.66211555    -0.80400
C1189       C  0.61546237  0.87729719  0.83744346     0.79600
N1190       N  0.62334763  0.84187501  0.86825245    -0.78800
C1191       C  0.65500174  0.84312905  0.89904081     0.82000
N1192       N  0.67902529  0.88103166  0.89855450    -0.78700
C1193       C  0.67208582  0.91685254  0.86736537     0.82100
N1194       N  0.64013651  0.91466068  0.83722509    -0.80400
C1195       C  0.59029357  0.63101185  0.57382255     0.79600
N1196       N  0.62097462  0.59692617  0.57343199    -0.78800
C1197       C  0.62252974  0.56349518  0.60768265     0.82000
N1198       N  0.59277177  0.56458741  0.64296308    -0.79700
C1199       C  0.56129162  0.59777277  0.64392261     0.82100
N1200       N  0.56103680  0.63134576  0.60963748    -0.80400
O1201       O  0.55141354  0.59357548  0.72298704    -0.75100
O1202       O  0.99001542  0.63353026  0.82705147    -0.75100
O1203       O  0.49226621  0.55995992  0.79036615    -0.75200
O1204       O  0.55231434  0.66809067  0.75868655    -0.75200
O1205       O  0.99522093  0.69337722  0.71821768    -0.75200
O1206       O  0.93370067  0.58391828  0.75111354    -0.75100
O1207       O  0.93348791  0.65911156  0.78577720    -0.75100
O1208       O  0.49366692  0.61896127  0.68285960    -0.75200
Ni1209     Ni  0.52357592  0.61314909  0.77623536     1.25400
Ni1210     Ni  0.96199222  0.63988454  0.73305545     1.25400
C1211       C  0.53368810  0.60243869  0.68529795     0.87100
C1212       C  0.94886525  0.64770020  0.82401731     0.87000
C1213       C  0.95130437  0.55636304  0.78067713     0.87000
C1214       C  0.03639542  0.69592218  0.72849511     0.87200
O1215       O  0.60853116  0.66699923  0.50026835    -0.75100
O1216       O  0.66294070  0.76533128  0.92442453    -0.75100
O1217       O  0.69092173  0.69790587  0.99064196    -0.75200
O1218       O  0.58111360  0.73589295  0.93520595    -0.75200
O1219       O  0.56532072  0.77621349  0.48964901    -0.75200
O1220       O  0.67622655  0.74437238  0.53956083    -0.75100
O1221       O  0.64654194  0.80986578  0.97524668    -0.75100
O1222       O  0.59474032  0.71024299  0.55279145    -0.75200
Ni1223     Ni  0.63652933  0.71476770  0.96080941     1.25400
Ni1224     Ni  0.62026539  0.76163496  0.51612731     1.25400
C1225       C  0.59639861  0.67144381  0.54034159     0.87100
C1226       C  0.65780421  0.80461765  0.93510237     0.87000
C1227       C  0.69838859  0.71146248  0.02753580     0.87000
C1228       C  0.55910734  0.76745382  0.95085760     0.87200
O1229       O  0.80760150  0.97308055  0.59781690    -0.75100
O1230       O  0.69456462  0.53729363  0.58126285    -0.75100
O1231       O  0.77255270  0.55458142  0.61512850    -0.75200
O1232       O  0.72909451  0.45781046  0.56546927    -0.75200
O1233       O  0.70068621  0.92509393  0.62976285    -0.75200
O1234       O  0.74723375  0.02159849  0.68055420    -0.75100
O1235       O  0.66809491  0.50602866  0.64681756    -0.75100
O1236       O  0.78125474  0.94019497  0.66279893    -0.75200
Ni1237     Ni  0.75213002  0.50664151  0.58773621     1.25400
Ni1238     Ni  0.72370842  0.97210464  0.65757461     1.25400
C1239       C  0.81203304  0.94404549  0.63157472     0.87100
C1240       C  0.66306759  0.53325358  0.61161782     0.87000
C1241       C  0.76319869  0.05540948  0.65594750     0.87000
C1242       C  0.70744463  0.92633053  0.58827157     0.87200
O1243       O  0.98033097  0.90894739  0.69194764    -0.75100
O1244       O  0.57548320  0.90810530  0.77408457    -0.75100
O1245       O  0.56868099  0.88057745  0.69352784    -0.75200
O1246       O  0.48814135  0.93435481  0.77248373    -0.75200
O1247       O  0.96458971  0.86856349  0.80484990    -0.75200
O1248       O  0.04501387  0.81607494  0.72864240    -0.75100
O1249       O  0.55240254  0.84307336  0.80815904    -0.75100
O1250       O  0.95811374  0.84279050  0.72397100    -0.75200
Ni1251     Ni  0.52891107  0.91044950  0.73178972     1.25400
Ni1252     Ni  0.00432653  0.84027023  0.76744028     1.25400
C1253       C  0.95338907  0.87628238  0.69437662     0.87100
C1254       C  0.57948865  0.87586883  0.80496695     0.87000
C1255       C  0.57013577  0.83836289  0.69931007     0.87000
C1256       C  0.46357851  0.91034447  0.80132127     0.87200
O1257       O  0.68616761  0.99335889  0.87781396    -0.75100
O1258       O  0.77294764  0.57935750  0.90779797    -0.75100
O1259       O  0.72749267  0.56869283  0.83677511    -0.75200
O1260       O  0.72710021  0.50568392  0.95018627    -0.75200
O1261       O  0.77934920  0.95880504  0.92937457    -0.75200
O1262       O  0.78562595  0.02759947  0.81553945    -0.75100
O1263       O  0.82827889  0.53413357  0.88903709    -0.75100
O1264       O  0.74326794  0.95200714  0.85543535    -0.75200
Ni1265     Ni  0.72660911  0.53850007  0.89401555     1.25400
Ni1266     Ni  0.78669101  0.99196987  0.87173374     1.25400
C1267       C  0.70130219  0.95663629  0.86538721     0.87100
C1268       C  0.81540393  0.57179707  0.90012991     0.87000
C1269       C  0.75701757  0.05956610  0.80787680     0.87000
C1270       C  0.74444687  0.96700474  0.95367946     0.87200
O1271       O  0.84547940  0.72884084  0.96331834    -0.75100
O1272       O  0.85320667  0.81929138  0.54137729    -0.75100
O1273       O  0.87705616  0.81123358  0.95544557    -0.75200
O1274       O  0.81963776  0.73767768  0.04749826    -0.75200
O1275       O  0.88392781  0.70425886  0.56904988    -0.75200
O1276       O  0.94258912  0.78551201  0.48195091    -0.75100
O1277       O  0.91593081  0.78767769  0.56801198    -0.75100
O1278       O  0.91312858  0.70323986  0.98380185    -0.75200
Ni1279     Ni  0.84644725  0.77536564  0.00138810     1.25400
Ni1280     Ni  0.91641647  0.74434474  0.52667265     1.25400
C1281       C  0.87918434  0.70209345  0.95963341     0.87100
C1282       C  0.88501796  0.81768530  0.56854774     0.87000
C1283       C  0.91966749  0.80935569  0.45304587     0.87000
C1284       C  0.84099676  0.70762741  0.57135142     0.87200
C1285       C  0.67310398  0.43817137  0.99581818    -0.02500
C1286       C  0.71941955  0.93156402  0.98234835     0.07200
C1287       C  0.74078614  0.89228519  0.00098108    -0.02600
C1288       C  0.72297456  0.87145115  0.54171358    -0.02600
C1289       C  0.68862975  0.89366850  0.56342936     0.07300
C1290       C  0.65660329  0.41521716  0.53602900    -0.02800
Br1291     Br  0.60010688  0.43229348  0.56290744    -0.01400
Br1292     Br  0.63310237  0.47996678  0.96393894    -0.01400
Br1293     Br  0.75436004  0.82455825  0.57520907    -0.01400
Br1294     Br  0.79217448  0.86786184  0.97213167    -0.01400
C1295       C  0.79922746  0.09832107  0.74391598    -0.02500
C1296       C  0.75780512  0.08594806  0.76486513     0.07200
C1297       C  0.71849855  0.59521841  0.74158191    -0.02600
C1298       C  0.72383917  0.60704540  0.69612881    -0.02600
C1299       C  0.76524963  0.09670731  0.67519158     0.07300
C1300       C  0.80388894  0.10194631  0.69806966    -0.02800
Br1301     Br  0.86217515  0.10746542  0.66795031    -0.01400
Br1302     Br  0.84465944  0.11676316  0.77795424    -0.01400
Br1303     Br  0.67358577  0.62636532  0.66244865    -0.01400
Br1304     Br  0.65901442  0.58699630  0.76916822    -0.01400
C1305       C  0.50112452  0.78238739  0.89289155    -0.02500
C1306       C  0.52841746  0.79737276  0.92424770     0.07200
C1307       C  0.51961786  0.84051235  0.43638115    -0.02600
C1308       C  0.97632023  0.85896305  0.43114662    -0.02600
C1309       C  0.94427407  0.83287175  0.91578041     0.07300
C1310       C  0.95910333  0.80366880  0.88604641    -0.02800
Br1311     Br  0.91547770  0.78132758  0.85051994    -0.01400
Br1312     Br  0.51796140  0.73209905  0.86331410    -0.01400
Br1313     Br  0.95465786  0.90408987  0.46637232    -0.01400
Br1314     Br  0.56280485  0.87209939  0.46499774    -0.01400
C1315       C  0.80012248  0.64433308  0.06802941    -0.02500
C1316       C  0.81306160  0.67399970  0.09628089     0.07200
C1317       C  0.77837765  0.69285882  0.62047802    -0.02600
C1318       C  0.73760512  0.70319249  0.59981081    -0.02600
C1319       C  0.73168684  0.68885225  0.05786779     0.07300
C1320       C  0.75969980  0.65343503  0.04614548    -0.02800
Br1321     Br  0.74462008  0.61776389  0.00155850    -0.01400
Br1322     Br  0.84515869  0.60467753  0.04716755    -0.01400
Br1323     Br  0.69235576  0.73639769  0.62969249    -0.01400
Br1324     Br  0.79354748  0.71902118  0.67162776    -0.01400
C1325       C  0.89600805  0.49328910  0.78876636    -0.02500
C1326       C  0.92514728  0.52117691  0.80739059     0.07200
C1327       C  0.44257953  0.50505992  0.84865633    -0.02600
C1328       C  0.45412129  0.96046583  0.85484836    -0.02600
C1329       C  0.93283045  0.93260508  0.82930535     0.07300
C1330       C  0.89463816  0.94870450  0.80696367    -0.02800
Br1331     Br  0.85650697  0.90733554  0.78441908    -0.01400
Br1332     Br  0.86925829  0.50963245  0.73349961    -0.01400
Br1333     Br  0.51445520  0.94673371  0.87416105    -0.01400
Br1334     Br  0.46657239  0.54305011  0.88727704    -0.01400
C1335       C  0.05435685  0.75103022  0.66122511    -0.02500
C1336       C  0.06635220  0.72986411  0.70336654     0.07200
C1337       C  0.60742927  0.74303428  0.72002800    -0.02600
C1338       C  0.62638527  0.78367472  0.70129356    -0.02600
C1339       C  0.10002929  0.81215874  0.67304163     0.07300
C1340       C  0.07474475  0.79137204  0.64456036    -0.02800
Br1341     Br  0.05576234  0.82527682  0.59151032    -0.01400
Br1342     Br  0.01067005  0.72717535  0.62637141    -0.01400
Br1343     Br  0.67712171  0.80823103  0.72574877    -0.01400
Br1344     Br  0.63617307  0.71008998  0.76920484    -0.01400
loop_ 
_geom_bond_atom_site_label_1 
_geom_bond_atom_site_label_2 
_geom_bond_distance 
_geom_bond_site_symmetry_2 
_ccdc_geom_bond_type 
C1            N2   1.374       .  A
C1            N6   1.374       .  A
C1          C105   1.492       .  S
N2            C3   1.364       .  A
C3            N4   1.370       .  A
C3           C36   1.519       .  S
N4            C5   1.369       .  A
C5            N6   1.367       .  A
C5           C92   1.519       .  S
C7            N8   1.369       .  A
C7           N12   1.371       .  A
C7           C77   1.498       .  S
N8            C9   1.368       .  A
C9           N10   1.365       .  A
C9          C106   1.502       .  S
N10          C11   1.365       .  A
C11          N12   1.368       .  A
C11          C63   1.498       .  S
C13          N14   1.366       .  A
C13          N18   1.367       .  A
C13          C78   1.500       .  S
N14          C15   1.368       .  A
C15          N16   1.370       .  A
C15          C50   1.512       .  S
N16          C17   1.377       .  A
C17          N18   1.364       .  A
C17          C91   1.500       .  S
C19          N20   1.369       .  A
C19          N24   1.368       .  A
C19          C49   1.510       .  S
N20          C21   1.370       .  A
C21          N22   1.367       .  A
C21          C64   1.501       .  S
N22          C23   1.365       .  A
C23          N24   1.372       .  A
C23          C35   1.497       .  S
O25         Ni33   1.949       .  S
O25          C35   1.288       .  A
O26        Ni705   1.969       .  S
O26          C36   1.291       .  A
O27         Ni33   1.880   1_655  S
O27         C709   1.276       .  A
O28         Ni33   1.902       .  S
O28         C710   1.276       .  A
O29         Ni34   1.919       .  S
O29          C38   1.284       .  A
O30         Ni34   1.925       .  S
O30          C37   1.279       .  A
O31         Ni34   1.939       .  S
O31          C36   1.283       .  A
O32        Ni706   1.935       .  S
O32          C35   1.283   1_655  A
Ni33        O698   1.969   1_455  S
Ni33       Ni706   2.379   1_455  S
Ni34        O704   1.935       .  S
Ni34       Ni705   2.379       .  S
C37         C150   1.476       .  S
C37         O699   1.276       .  A
C38         C160   1.493       .  S
C38         O700   1.276       .  A
O39        Ni215   1.947   1_554  S
O39          C49   1.286       .  A
O40         Ni47   1.942       .  S
O40          C50   1.286       .  A
O41         Ni47   1.923       .  S
O41          C51   1.283       .  A
O42         Ni47   1.921       .  S
O42          C52   1.282       .  A
O43         Ni48   1.877   1_556  S
O43         C220   1.274       .  A
O44         Ni48   1.881       .  S
O44         C219   1.272       .  A
O45        Ni216   1.958       .  S
O45          C50   1.288       .  A
O46         Ni48   1.954       .  S
O46          C49   1.288       .  A
Ni47        O207   1.947       .  S
Ni47       Ni216   2.378       .  S
Ni48        O213   1.958   1_554  S
Ni48       Ni215   2.378   1_554  S
C51         C143   1.488       .  S
C51         O212   1.272       .  A
C52         C130   1.475       .  S
C52         O211   1.274       .  A
O53        Ni397   1.937       .  S
O53          C63   1.284       .  A
O54         Ni61   1.937       .  S
O54          C64   1.284       .  A
O55         Ni61   1.900       .  S
O55         C401   1.272       .  A
O56         Ni61   1.871   1_565  S
O56         C402   1.280       .  A
O57         Ni62   1.913       .  S
O57          C66   1.274       .  A
O58         Ni62   1.904       .  S
O58          C65   1.284       .  A
O59        Ni398   1.949   1_545  S
O59          C64   1.289       .  A
O60         Ni62   1.952       .  S
O60          C63   1.287       .  A
Ni61        O389   1.937   1_545  S
Ni61       Ni398   2.388   1_545  S
Ni62        O395   1.949       .  S
Ni62       Ni397   2.388       .  S
C65         C123   1.461       .  S
C65         O391   1.272       .  A
C66         C113   1.464       .  S
C66         O392   1.280       .  A
O67        Ni747   1.940       .  S
O67          C77   1.284       .  A
O68         Ni75   1.935       .  S
O68          C78   1.284       .  A
O69         Ni75   1.921       .  S
O69          C79   1.278       .  A
O70         Ni75   1.898   1_655  S
O70          C80   1.283       .  A
O71         Ni76   1.878       .  S
O71         C752   1.265       .  A
O72         Ni76   1.861       .  S
O72         C751   1.277       .  A
O73        Ni748   1.951       .  S
O73          C78   1.288       .  A
O74         Ni76   1.952       .  S
O74          C77   1.288       .  A
Ni75        O739   1.940   1_455  S
Ni75       Ni748   2.390       .  S
Ni76        O745   1.951       .  S
Ni76       Ni747   2.390       .  S
C79         C835   1.463       .  S
C79         O744   1.277       .  A
C80         C825   1.441       .  S
C80         O743   1.265       .  A
O81        Ni425   1.972       .  S
O81          C91   1.293       .  A
O82         Ni89   1.972       .  S
O82          C92   1.293       .  A
O83         Ni89   1.875       .  S
O83         C429   1.268       .  A
O84         Ni89   1.880       .  S
O84         C430   1.271   1_545  A
O85         Ni90   1.927       .  S
O85          C94   1.286       .  A
O86         Ni90   1.919       .  S
O86          C93   1.286       .  A
O87        Ni426   1.940   1_545  S
O87          C92   1.284       .  A
O88         Ni90   1.919       .  S
O88          C91   1.278       .  A
Ni89        O417   1.972   1_545  S
Ni89       Ni426   2.384   1_545  S
Ni90        O423   1.940       .  S
Ni90       Ni425   2.384       .  S
C93         C120   1.455       .  S
C93         O419   1.268       .  A
C94         C110   1.492       .  S
C94         O420   1.271       .  A
O95        Ni103   1.950       .  S
O95         C105   1.288       .  A
O96        Ni271   1.947       .  S
O96         C106   1.285       .  A
O97        Ni103   1.881       .  S
O97         C275   1.264       .  A
O98        Ni103   1.864       .  S
O98         C276   1.276       .  A
O99        Ni104   1.909       .  S
O99         C108   1.276       .  A
O100       Ni104   1.888   1_556  S
O100        C107   1.285       .  A
O101       Ni104   1.943       .  S
O101        C106   1.283       .  A
O102       Ni272   1.935       .  S
O102        C105   1.283       .  A
Ni103       O264   1.947       .  S
Ni103      Ni272   2.387       .  S
Ni104       O270   1.935   1_554  S
Ni104      Ni271   2.387       .  S
C107        C301   1.445       .  S
C107        O265   1.264       .  A
C108        C308   1.450       .  S
C108        O266   1.276       .  A
C109       Br116   1.930       .  S
C109        C446   1.434       .  A
C109        C282   1.410       .  A
C110        C111   1.412       .  A
C110        C445   1.434       .  A
C111       Br118   1.911       .  S
C111        C280   1.412       .  A
C112       Br117   1.906       .  S
C112        C113   1.401       .  A
C112        C279   1.412       .  A
C113        C450   1.397       .  A
C114       Br115   1.924       .  S
C114        C277   1.410   1_554  A
C114        C449   1.397       .  A
C119       Br126   1.882       .  S
C119        C120   1.397       .  A
C119        C124   1.396       .  A
C120        C457   1.403       .  A
C121       Br128   1.929       .  S
C121        C122   1.397       .  A
C121        C456   1.403       .  A
C122       Br127   1.897       .  S
C122        C459   1.408       .  A
C123        C124   1.396       .  A
C123        C458   1.408       .  A
C124       Br125   1.923       .  S
C129       Br136   1.924       .  S
C129        C130   1.411       .  A
C129        C806   1.407   1_455  A
C130        C299   1.428       .  A
C131       Br138   1.928       .  S
C131        C298   1.428       .  A
C131        C804   1.401   1_455  A
C132       Br137   1.936       .  S
C132        C803   1.401       .  A
C132        C301   1.390       .  A
C133        C275   1.445       .  S
C133        C134   1.403       .  A
C133        C300   1.390       .  A
C134       Br135   1.921       .  S
C134        C801   1.407       .  A
C139       Br146   1.925       .  S
C139        C140   1.401       .  A
C139        C144   1.409       .  A
C140        C276   1.450       .  S
C140        C309   1.397       .  A
C141       Br148   1.923       .  S
C141        C142   1.405       .  A
C141        C308   1.397       .  A
C142       Br147   1.931       .  S
C142        C311   1.429       .  A
C143        C144   1.421       .  A
C143        C310   1.429       .  A
C144       Br145   1.926       .  S
C149       Br156   1.910   1_565  S
C149        C150   1.415   1_565  A
C149        C490   1.404       .  A
C150        C823   1.416       .  A
C151       Br158   1.928       .  S
C151        C822   1.416       .  A
C151        C488   1.388   1_545  A
C152       Br157   1.935   1_655  S
C152        C487   1.388       .  A
C152        C825   1.405       .  A
C153        C752   1.441       .  S
C153        C154   1.401       .  A
C153        C824   1.405       .  A
C154       Br155   1.926       .  S
C154        C485   1.404       .  A
C159       Br166   1.930       .  S
C159        C160   1.427       .  A
C159        C164   1.409       .  A
C160        C833   1.430       .  A
C161       Br168   1.928       .  S
C161        C162   1.415       .  A
C161        C832   1.430       .  A
C162       Br167   1.922       .  S
C162        C835   1.401       .  A
C163        C751   1.463       .  S
C163        C164   1.397       .  A
C163        C834   1.401       .  A
C164       Br165   1.916       .  S
C169        N170   1.374       .  A
C169        N174   1.374       .  A
C169        C273   1.492       .  S
N170        C171   1.364       .  A
C171        N172   1.370       .  A
C171        C204   1.519       .  S
N172        C173   1.369       .  A
C173        N174   1.367       .  A
C173        C260   1.519       .  S
C175        N176   1.369       .  A
C175        N180   1.371       .  A
C175        C245   1.498       .  S
N176        C177   1.368       .  A
C177        N178   1.365       .  A
C177        C274   1.502       .  S
N178        C179   1.365       .  A
C179        N180   1.368       .  A
C179        C231   1.498       .  S
C181        N182   1.366       .  A
C181        N186   1.367       .  A
C181        C246   1.500       .  S
N182        C183   1.368       .  A
C183        N184   1.370       .  A
C183        C218   1.512       .  S
N184        C185   1.377       .  A
C185        N186   1.364       .  A
C185        C259   1.500       .  S
C187        N188   1.369       .  A
C187        N192   1.368       .  A
C187        C217   1.510       .  S
N188        C189   1.370       .  A
C189        N190   1.367       .  A
C189        C232   1.501       .  S
N190        C191   1.365       .  A
C191        N192   1.372       .  A
C191        C203   1.497       .  S
O193       Ni201   1.949       .  S
O193        C203   1.288       .  A
O194       Ni873   1.969       .  S
O194        C204   1.291       .  A
O195       Ni201   1.880   1_655  S
O195        C877   1.276       .  A
O196       Ni201   1.902       .  S
O196        C878   1.276       .  A
O197       Ni202   1.919       .  S
O197        C206   1.284       .  A
O198       Ni202   1.925       .  S
O198        C205   1.279       .  A
O199       Ni202   1.939       .  S
O199        C204   1.283       .  A
O200       Ni874   1.935       .  S
O200        C203   1.283   1_655  A
Ni201       O866   1.969   1_455  S
Ni201      Ni874   2.379   1_455  S
Ni202       O872   1.935       .  S
Ni202      Ni873   2.379       .  S
C205        C318   1.476       .  S
C205        O867   1.276       .  A
C206        C328   1.493       .  S
C206        O868   1.276       .  A
O207        C217   1.286       .  A
O208       Ni215   1.942       .  S
O208        C218   1.286       .  A
O209       Ni215   1.923       .  S
O209        C219   1.283   1_556  A
O210       Ni215   1.921       .  S
O210        C220   1.282       .  A
O211       Ni216   1.877       .  S
O212       Ni216   1.881       .  S
O213        C218   1.288       .  A
O214       Ni216   1.954       .  S
O214        C217   1.288       .  A
C219        C311   1.488       .  S
C220        C298   1.475       .  S
O221       Ni565   1.937       .  S
O221        C231   1.284       .  A
O222       Ni229   1.937       .  S
O222        C232   1.284       .  A
O223       Ni229   1.900       .  S
O223        C569   1.272       .  A
O224       Ni229   1.871   1_565  S
O224        C570   1.280       .  A
O225       Ni230   1.913       .  S
O225        C234   1.274       .  A
O226       Ni230   1.904       .  S
O226        C233   1.284       .  A
O227       Ni566   1.949   1_545  S
O227        C232   1.289       .  A
O228       Ni230   1.952       .  S
O228        C231   1.287       .  A
Ni229       O557   1.937   1_545  S
Ni229      Ni566   2.388   1_545  S
Ni230       O563   1.949       .  S
Ni230      Ni565   2.388       .  S
C233        C291   1.461       .  S
C233        O559   1.272       .  A
C234        C281   1.464       .  S
C234        O560   1.280       .  A
O235       Ni915   1.940       .  S
O235        C245   1.284       .  A
O236       Ni243   1.935       .  S
O236        C246   1.284       .  A
O237       Ni243   1.921       .  S
O237        C247   1.278       .  A
O238       Ni243   1.897   1_655  S
O238        C248   1.283       .  A
O239       Ni244   1.879       .  S
O239        C920   1.265       .  A
O240       Ni244   1.861       .  S
O240        C919   1.277       .  A
O241       Ni916   1.951       .  S
O241        C246   1.288       .  A
O242       Ni244   1.952       .  S
O242        C245   1.288       .  A
Ni243       O907   1.940   1_455  S
Ni243      Ni916   2.390       .  S
Ni244       O913   1.951       .  S
Ni244      Ni915   2.390       .  S
C247       C1003   1.463       .  S
C247        O912   1.277       .  A
C248        C993   1.441       .  S
C248        O911   1.265       .  A
O249       Ni593   1.972       .  S
O249        C259   1.293       .  A
O250       Ni257   1.972       .  S
O250        C260   1.293       .  A
O251       Ni257   1.875       .  S
O251        C597   1.268       .  A
O252       Ni257   1.880       .  S
O252        C598   1.271   1_545  A
O253       Ni258   1.927       .  S
O253        C262   1.286       .  A
O254       Ni258   1.919       .  S
O254        C261   1.286       .  A
O255       Ni594   1.940   1_545  S
O255        C260   1.284       .  A
O256       Ni258   1.919       .  S
O256        C259   1.278       .  A
Ni257       O585   1.972   1_545  S
Ni257      Ni594   2.384   1_545  S
Ni258       O591   1.940       .  S
Ni258      Ni593   2.384       .  S
C261        C288   1.455       .  S
C261        O587   1.268       .  A
C262        C278   1.492       .  S
C262        O588   1.271       .  A
O263       Ni271   1.950   1_556  S
O263        C273   1.288       .  A
O264        C274   1.285       .  A
O265       Ni271   1.881   1_556  S
O266       Ni271   1.864       .  S
O267       Ni272   1.909       .  S
O267        C276   1.276       .  A
O268       Ni272   1.888       .  S
O268        C275   1.285       .  A
O269       Ni272   1.943       .  S
O269        C274   1.283       .  A
O270        C273   1.283       .  A
C277       Br284   1.930       .  S
C277        C614   1.434       .  A
C278        C613   1.434       .  A
C278        C279   1.412   1_556  A
C279       Br286   1.911   1_554  S
C280       Br285   1.906       .  S
C280        C281   1.401       .  A
C281        C618   1.397       .  A
C282       Br283   1.924       .  S
C282        C617   1.397       .  A
C287       Br294   1.882       .  S
C287        C288   1.397       .  A
C287        C292   1.396       .  A
C288        C625   1.403       .  A
C289       Br296   1.929       .  S
C289        C624   1.403       .  A
C289        C290   1.397       .  A
C290       Br295   1.897       .  S
C290        C627   1.408       .  A
C291        C626   1.408       .  A
C291        C292   1.396       .  A
C292       Br293   1.923       .  S
C297       Br304   1.924       .  S
C297        C298   1.411       .  A
C297        C974   1.407   1_455  A
C299       Br306   1.928       .  S
C299        C972   1.401   1_455  A
C300       Br305   1.936       .  S
C300        C971   1.401       .  A
C301        C302   1.403       .  A
C302       Br303   1.921       .  S
C302        C969   1.407       .  A
C307       Br314   1.925       .  S
C307        C308   1.401       .  A
C307        C312   1.409       .  A
C309       Br316   1.923       .  S
C309        C310   1.405       .  A
C310       Br315   1.931       .  S
C311        C312   1.421       .  A
C312       Br313   1.926       .  S
C317       Br324   1.910   1_565  S
C317        C318   1.415   1_565  A
C317        C658   1.404       .  A
C318        C991   1.416       .  A
C319       Br326   1.928       .  S
C319        C990   1.416       .  A
C319        C656   1.388   1_545  A
C320       Br325   1.935   1_655  S
C320        C655   1.388       .  A
C320        C993   1.405       .  A
C321        C920   1.441       .  S
C321        C992   1.405       .  A
C321        C322   1.401       .  A
C322       Br323   1.926       .  S
C322        C653   1.404       .  A
C327       Br334   1.930       .  S
C327        C328   1.427       .  A
C327        C332   1.409       .  A
C328       C1001   1.429       .  A
C329       Br336   1.928       .  S
C329       C1000   1.429       .  A
C329        C330   1.415       .  A
C330       Br335   1.922       .  S
C330       C1003   1.401       .  A
C331        C919   1.463       .  S
C331       C1002   1.401       .  A
C331        C332   1.397       .  A
C332       Br333   1.916       .  S
C337        N338   1.374       .  A
C337        N342   1.374       .  A
C337        C441   1.492       .  S
N338        C339   1.364       .  A
C339        N340   1.370       .  A
C339        C372   1.519       .  S
N340        C341   1.369       .  A
C341        N342   1.367       .  A
C341        C428   1.519       .  S
C343        N344   1.369       .  A
C343        N348   1.371       .  A
C343        C413   1.498       .  S
N344        C345   1.368       .  A
C345        N346   1.365       .  A
C345        C442   1.502       .  S
N346        C347   1.365       .  A
C347        N348   1.368       .  A
C347        C399   1.498       .  S
C349        N350   1.366       .  A
C349        N354   1.367       .  A
C349        C414   1.500       .  S
N350        C351   1.368       .  A
C351        N352   1.370       .  A
C351        C386   1.512       .  S
N352        C353   1.377       .  A
C353        N354   1.364       .  A
C353        C427   1.500       .  S
C355        N356   1.369       .  A
C355        N360   1.368       .  A
C355        C385   1.510       .  S
N356        C357   1.370       .  A
C357        N358   1.367       .  A
C357        C400   1.501       .  S
N358        C359   1.365       .  A
C359        N360   1.372       .  A
C359        C371   1.497       .  S
O361       Ni369   1.949       .  S
O361        C371   1.288       .  A
O362      Ni1041   1.969       .  S
O362        C372   1.291       .  A
O363       Ni369   1.880   1_655  S
O363       C1045   1.276       .  A
O364       Ni369   1.902       .  S
O364       C1046   1.276       .  A
O365       Ni370   1.919       .  S
O365        C374   1.284       .  A
O366       Ni370   1.925       .  S
O366        C373   1.279       .  A
O367       Ni370   1.939       .  S
O367        C372   1.283       .  A
O368      Ni1042   1.935       .  S
O368        C371   1.283   1_655  A
Ni369      O1034   1.969   1_455  S
Ni369     Ni1042   2.379   1_455  S
Ni370      O1040   1.935       .  S
Ni370     Ni1041   2.379       .  S
C373        C486   1.476       .  S
C373       O1035   1.276       .  A
C374        C496   1.493       .  S
C374       O1036   1.276       .  A
O375       Ni551   1.947   1_554  S
O375        C385   1.286       .  A
O376       Ni383   1.942       .  S
O376        C386   1.286       .  A
O377       Ni383   1.923       .  S
O377        C387   1.283       .  A
O378       Ni383   1.921       .  S
O378        C388   1.282       .  A
O379       Ni384   1.877   1_556  S
O379        C556   1.274       .  A
O380       Ni384   1.881       .  S
O380        C555   1.272       .  A
O381       Ni552   1.958       .  S
O381        C386   1.288       .  A
O382       Ni384   1.954       .  S
O382        C385   1.288       .  A
Ni383       O543   1.947       .  S
Ni383      Ni552   2.378       .  S
Ni384       O549   1.958   1_554  S
Ni384      Ni551   2.378   1_554  S
C387        C479   1.488       .  S
C387        O548   1.272       .  A
C388        C466   1.475       .  S
C388        O547   1.274       .  A
O389        C399   1.284       .  A
O390       Ni397   1.937       .  S
O390        C400   1.284       .  A
O391       Ni397   1.900       .  S
O392       Ni397   1.871       .  S
O393       Ni398   1.913       .  S
O393        C402   1.274       .  A
O394       Ni398   1.904   1_545  S
O394        C401   1.284       .  A
O395        C400   1.289       .  A
O396       Ni398   1.952       .  S
O396        C399   1.287       .  A
C401        C459   1.461       .  S
C402        C449   1.464       .  S
O403      Ni1083   1.940       .  S
O403        C413   1.284       .  A
O404       Ni411   1.935       .  S
O404        C414   1.284       .  A
O405       Ni411   1.921       .  S
O405        C415   1.278       .  A
O406       Ni411   1.898   1_655  S
O406        C416   1.283       .  A
O407       Ni412   1.878       .  S
O407       C1088   1.265       .  A
O408       Ni412   1.861       .  S
O408       C1087   1.277       .  A
O409      Ni1084   1.951       .  S
O409        C414   1.288       .  A
O410       Ni412   1.952       .  S
O410        C413   1.288       .  A
Ni411      O1075   1.940   1_455  S
Ni411     Ni1084   2.390       .  S
Ni412      O1081   1.951       .  S
Ni412     Ni1083   2.390       .  S
C415       C1171   1.463       .  S
C415       O1080   1.277       .  A
C416       C1161   1.441       .  S
C416       O1079   1.265       .  A
O417        C427   1.293       .  A
O418       Ni425   1.972       .  S
O418        C428   1.293       .  A
O419       Ni425   1.875       .  S
O420       Ni425   1.880       .  S
O421       Ni426   1.927       .  S
O421        C430   1.286       .  A
O422       Ni426   1.919   1_545  S
O422        C429   1.286       .  A
O423        C428   1.284       .  A
O424       Ni426   1.919       .  S
O424        C427   1.278       .  A
C429        C456   1.455       .  S
C430        C446   1.492       .  S
O431       Ni439   1.950       .  S
O431        C441   1.288       .  A
O432       Ni607   1.947       .  S
O432        C442   1.285       .  A
O433       Ni439   1.881       .  S
O433        C611   1.264       .  A
O434       Ni439   1.864       .  S
O434        C612   1.276       .  A
O435       Ni440   1.909       .  S
O435        C444   1.276       .  A
O436       Ni440   1.888   1_556  S
O436        C443   1.285       .  A
O437       Ni440   1.943       .  S
O437        C442   1.283       .  A
O438       Ni608   1.935       .  S
O438        C441   1.283       .  A
Ni439       O600   1.947       .  S
Ni439      Ni608   2.387       .  S
Ni440       O606   1.935   1_554  S
Ni440      Ni607   2.387       .  S
C443        C637   1.445       .  S
C443        O601   1.264       .  A
C444        C644   1.450       .  S
C444        O602   1.276       .  A
C445       Br452   1.930       .  S
C445        C618   1.410       .  A
C446        C447   1.412       .  A
C447       Br454   1.911       .  S
C447        C616   1.412       .  A
C448       Br453   1.906       .  S
C448        C615   1.412       .  A
C448        C449   1.401       .  A
C450       Br451   1.924       .  S
C450        C613   1.410   1_554  A
C455       Br462   1.882       .  S
C455        C456   1.397       .  A
C455        C460   1.396       .  A
C457       Br464   1.929       .  S
C457        C458   1.397       .  A
C458       Br463   1.897       .  S
C459        C460   1.396       .  A
C460       Br461   1.923       .  S
C465       Br472   1.924       .  S
C465        C466   1.411       .  A
C465       C1142   1.407   1_455  A
C466        C635   1.428       .  A
C467       Br474   1.928       .  S
C467        C634   1.428       .  A
C467       C1140   1.401   1_455  A
C468       Br473   1.936       .  S
C468       C1139   1.401       .  A
C468        C637   1.390       .  A
C469        C611   1.445       .  S
C469        C636   1.390       .  A
C469        C470   1.403       .  A
C470       Br471   1.921       .  S
C470       C1137   1.407       .  A
C475       Br482   1.925       .  S
C475        C476   1.401       .  A
C475        C480   1.409       .  A
C476        C612   1.450       .  S
C476        C645   1.397       .  A
C477       Br484   1.923       .  S
C477        C644   1.397       .  A
C477        C478   1.405       .  A
C478       Br483   1.931       .  S
C478        C647   1.429       .  A
C479        C646   1.429       .  A
C479        C480   1.421       .  A
C480       Br481   1.926       .  S
C485       Br492   1.910       .  S
C485        C486   1.415       .  A
C486       C1159   1.416       .  A
C487       Br494   1.928       .  S
C487       C1158   1.416       .  A
C488       Br493   1.935   1_655  S
C488       C1161   1.405       .  A
C489       C1088   1.441       .  S
C489       C1160   1.405       .  A
C489        C490   1.401       .  A
C490       Br491   1.926       .  S
C495       Br502   1.930       .  S
C495        C496   1.427       .  A
C495        C500   1.409       .  A
C496       C1169   1.429       .  A
C497       Br504   1.928       .  S
C497       C1168   1.429       .  A
C497        C498   1.415       .  A
C498       Br503   1.922       .  S
C498       C1171   1.401       .  A
C499       C1087   1.463       .  S
C499       C1170   1.401       .  A
C499        C500   1.397       .  A
C500       Br501   1.916       .  S
C505        N506   1.374       .  A
C505        N510   1.374       .  A
C505        C609   1.492       .  S
N506        C507   1.364       .  A
C507        N508   1.370       .  A
C507        C540   1.519       .  S
N508        C509   1.369       .  A
C509        N510   1.367       .  A
C509        C596   1.519       .  S
C511        N512   1.369       .  A
C511        N516   1.371       .  A
C511        C581   1.498       .  S
N512        C513   1.368       .  A
C513        N514   1.365       .  A
C513        C610   1.502       .  S
N514        C515   1.365       .  A
C515        N516   1.368       .  A
C515        C567   1.498       .  S
C517        N518   1.366       .  A
C517        N522   1.367       .  A
C517        C582   1.500       .  S
N518        C519   1.368       .  A
C519        N520   1.370       .  A
C519        C554   1.512       .  S
N520        C521   1.377       .  A
C521        N522   1.364       .  A
C521        C595   1.500       .  S
C523        N524   1.369       .  A
C523        N528   1.368       .  A
C523        C553   1.510       .  S
N524        C525   1.370       .  A
C525        N526   1.367       .  A
C525        C568   1.501       .  S
N526        C527   1.365       .  A
C527        N528   1.372       .  A
C527        C539   1.497       .  S
O529       Ni537   1.949       .  S
O529        C539   1.288       .  A
O530      Ni1209   1.969       .  S
O530        C540   1.291       .  A
O531       Ni537   1.880   1_655  S
O531       C1213   1.276       .  A
O532       Ni537   1.902       .  S
O532       C1214   1.276       .  A
O533       Ni538   1.919       .  S
O533        C542   1.284       .  A
O534       Ni538   1.925       .  S
O534        C541   1.279       .  A
O535       Ni538   1.939       .  S
O535        C540   1.283       .  A
O536      Ni1210   1.935       .  S
O536        C539   1.283   1_655  A
Ni537      O1202   1.969   1_455  S
Ni537     Ni1210   2.379   1_455  S
Ni538      O1208   1.935       .  S
Ni538     Ni1209   2.379       .  S
C541        C654   1.476       .  S
C541       O1203   1.276       .  A
C542        C664   1.493       .  S
C542       O1204   1.276       .  A
O543        C553   1.286       .  A
O544       Ni551   1.942       .  S
O544        C554   1.286       .  A
O545       Ni551   1.923       .  S
O545        C555   1.283   1_556  A
O546       Ni551   1.921       .  S
O546        C556   1.282       .  A
O547       Ni552   1.877       .  S
O548       Ni552   1.881       .  S
O549        C554   1.288       .  A
O550       Ni552   1.954       .  S
O550        C553   1.288       .  A
C555        C647   1.488       .  S
C556        C634   1.475       .  S
O557        C567   1.284       .  A
O558       Ni565   1.937       .  S
O558        C568   1.284       .  A
O559       Ni565   1.900       .  S
O560       Ni565   1.871       .  S
O561       Ni566   1.913       .  S
O561        C570   1.274       .  A
O562       Ni566   1.904   1_545  S
O562        C569   1.284       .  A
O563        C568   1.289       .  A
O564       Ni566   1.952       .  S
O564        C567   1.287       .  A
C569        C627   1.461       .  S
C570        C617   1.464       .  S
O571      Ni1251   1.940       .  S
O571        C581   1.284       .  A
O572       Ni579   1.935       .  S
O572        C582   1.284       .  A
O573       Ni579   1.921       .  S
O573        C583   1.278       .  A
O574       Ni579   1.898   1_655  S
O574        C584   1.283       .  A
O575       Ni580   1.879       .  S
O575       C1256   1.265       .  A
O576       Ni580   1.861       .  S
O576       C1255   1.277       .  A
O577      Ni1252   1.951       .  S
O577        C582   1.288       .  A
O578       Ni580   1.952       .  S
O578        C581   1.288       .  A
Ni579      O1243   1.940   1_455  S
Ni579     Ni1252   2.390       .  S
Ni580      O1249   1.951       .  S
Ni580     Ni1251   2.390       .  S
C583       C1339   1.463       .  S
C583       O1248   1.277       .  A
C584       C1329   1.441       .  S
C584       O1247   1.265       .  A
O585        C595   1.293       .  A
O586       Ni593   1.972       .  S
O586        C596   1.293       .  A
O587       Ni593   1.875       .  S
O588       Ni593   1.880       .  S
O589       Ni594   1.927       .  S
O589        C598   1.286       .  A
O590       Ni594   1.919   1_545  S
O590        C597   1.286       .  A
O591        C596   1.284       .  A
O592       Ni594   1.919       .  S
O592        C595   1.278       .  A
C597        C624   1.455       .  S
C598        C614   1.492       .  S
O599       Ni607   1.950   1_556  S
O599        C609   1.288       .  A
O600        C610   1.285       .  A
O601       Ni607   1.881   1_556  S
O602       Ni607   1.864       .  S
O603       Ni608   1.909       .  S
O603        C612   1.276       .  A
O604       Ni608   1.888       .  S
O604        C611   1.285       .  A
O605       Ni608   1.943       .  S
O605        C610   1.283       .  A
O606        C609   1.283       .  A
C613       Br620   1.930       .  S
C614        C615   1.412   1_556  A
C615       Br622   1.911   1_554  S
C616       Br621   1.906       .  S
C616        C617   1.401       .  A
C618       Br619   1.924       .  S
C623       Br630   1.882       .  S
C623        C624   1.397       .  A
C623        C628   1.396       .  A
C625       Br632   1.929       .  S
C625        C626   1.397       .  A
C626       Br631   1.897       .  S
C627        C628   1.396       .  A
C628       Br629   1.923       .  S
C633       Br640   1.924       .  S
C633        C634   1.411       .  A
C633       C1310   1.407   1_455  A
C635       Br642   1.928       .  S
C635       C1308   1.401   1_455  A
C636       Br641   1.936       .  S
C636       C1307   1.401       .  A
C637        C638   1.403       .  A
C638       Br639   1.921       .  S
C638       C1305   1.407       .  A
C643       Br650   1.925       .  S
C643        C644   1.401       .  A
C643        C648   1.409       .  A
C645       Br652   1.923       .  S
C645        C646   1.405       .  A
C646       Br651   1.931       .  S
C647        C648   1.421       .  A
C648       Br649   1.926       .  S
C653       Br660   1.910       .  S
C653        C654   1.415       .  A
C654       C1327   1.416       .  A
C655       Br662   1.928       .  S
C655       C1326   1.416       .  A
C656       Br661   1.935   1_655  S
C656       C1329   1.405       .  A
C657       C1256   1.441       .  S
C657       C1328   1.405       .  A
C657        C658   1.401       .  A
C658       Br659   1.926       .  S
C663       Br670   1.930       .  S
C663        C664   1.427       .  A
C663        C668   1.409       .  A
C664       C1337   1.430       .  A
C665       Br672   1.928       .  S
C665       C1336   1.429       .  A
C665        C666   1.415       .  A
C666       Br671   1.922       .  S
C666       C1339   1.401       .  A
C667       C1255   1.463       .  S
C667       C1338   1.401       .  A
C667        C668   1.397       .  A
C668       Br669   1.916       .  S
C673        N674   1.374       .  A
C673        N678   1.374       .  A
C673        C777   1.492       .  S
N674        C675   1.364       .  A
C675        N676   1.370       .  A
C675        C708   1.519       .  S
N676        C677   1.369       .  A
C677        N678   1.367       .  A
C677        C764   1.519       .  S
C679        N680   1.369       .  A
C679        N684   1.371       .  A
C679        C749   1.498       .  S
N680        C681   1.368       .  A
C681        N682   1.365       .  A
C681        C778   1.502       .  S
N682        C683   1.365       .  A
C683        N684   1.368       .  A
C683        C735   1.498       .  S
C685        N686   1.366       .  A
C685        N690   1.367       .  A
C685        C750   1.500       .  S
N686        C687   1.368       .  A
C687        N688   1.370       .  A
C687        C722   1.512       .  S
N688        C689   1.377       .  A
C689        N690   1.364       .  A
C689        C763   1.500       .  S
C691        N692   1.369       .  A
C691        N696   1.368       .  A
C691        C721   1.510       .  S
N692        C693   1.370       .  A
C693        N694   1.367       .  A
C693        C736   1.501       .  S
N694        C695   1.365       .  A
C695        N696   1.372       .  A
C695        C707   1.497       .  S
O697       Ni705   1.949       .  S
O697        C707   1.288       .  A
O698        C708   1.291       .  A
O699       Ni705   1.880       .  S
O700       Ni705   1.902       .  S
O701       Ni706   1.919       .  S
O701        C710   1.284   1_655  A
O702       Ni706   1.925       .  S
O702        C709   1.279       .  A
O703       Ni706   1.939       .  S
O703        C708   1.283       .  A
O704        C707   1.283       .  A
C709        C822   1.476       .  S
C710        C832   1.493       .  S
O711       Ni887   1.947   1_554  S
O711        C721   1.286       .  A
O712       Ni719   1.942       .  S
O712        C722   1.286       .  A
O713       Ni719   1.923       .  S
O713        C723   1.283       .  A
O714       Ni719   1.921       .  S
O714        C724   1.282       .  A
O715       Ni720   1.877   1_556  S
O715        C892   1.274       .  A
O716       Ni720   1.881       .  S
O716        C891   1.272       .  A
O717       Ni888   1.958       .  S
O717        C722   1.288       .  A
O718       Ni720   1.954       .  S
O718        C721   1.288       .  A
Ni719       O879   1.947       .  S
Ni719      Ni888   2.378       .  S
Ni720       O885   1.958   1_554  S
Ni720      Ni887   2.378   1_554  S
C723        C815   1.488       .  S
C723        O884   1.272       .  A
C724        C802   1.475       .  S
C724        O883   1.274       .  A
O725      Ni1069   1.937       .  S
O725        C735   1.284       .  A
O726       Ni733   1.937       .  S
O726        C736   1.284       .  A
O727       Ni733   1.900       .  S
O727       C1073   1.272       .  A
O728       Ni733   1.871   1_565  S
O728       C1074   1.280       .  A
O729       Ni734   1.913       .  S
O729        C738   1.274       .  A
O730       Ni734   1.904       .  S
O730        C737   1.284       .  A
O731      Ni1070   1.949   1_545  S
O731        C736   1.289       .  A
O732       Ni734   1.952       .  S
O732        C735   1.287       .  A
Ni733      O1061   1.937   1_545  S
Ni733     Ni1070   2.388   1_545  S
Ni734      O1067   1.949       .  S
Ni734     Ni1069   2.388       .  S
C737        C795   1.461       .  S
C737       O1063   1.272       .  A
C738        C785   1.464       .  S
C738       O1064   1.280       .  A
O739        C749   1.284       .  A
O740       Ni747   1.935       .  S
O740        C750   1.284       .  A
O741       Ni747   1.921       .  S
O741        C751   1.278       .  A
O742       Ni747   1.897       .  S
O742        C752   1.283       .  A
O743       Ni748   1.878   1_655  S
O744       Ni748   1.861       .  S
O745        C750   1.288       .  A
O746       Ni748   1.952   1_655  S
O746        C749   1.288       .  A
O753      Ni1097   1.972       .  S
O753        C763   1.293       .  A
O754       Ni761   1.972       .  S
O754        C764   1.293       .  A
O755       Ni761   1.875       .  S
O755       C1101   1.268       .  A
O756       Ni761   1.880       .  S
O756       C1102   1.271   1_545  A
O757       Ni762   1.927       .  S
O757        C766   1.286       .  A
O758       Ni762   1.919       .  S
O758        C765   1.286       .  A
O759      Ni1098   1.940   1_545  S
O759        C764   1.284       .  A
O760       Ni762   1.919       .  S
O760        C763   1.278       .  A
Ni761      O1089   1.972   1_545  S
Ni761     Ni1098   2.384   1_545  S
Ni762      O1095   1.940       .  S
Ni762     Ni1097   2.384       .  S
C765        C792   1.455       .  S
C765       O1091   1.268       .  A
C766        C782   1.492       .  S
C766       O1092   1.271       .  A
O767       Ni775   1.950       .  S
O767        C777   1.288       .  A
O768       Ni943   1.947       .  S
O768        C778   1.285       .  A
O769       Ni775   1.881       .  S
O769        C947   1.264       .  A
O770       Ni775   1.864       .  S
O770        C948   1.276       .  A
O771       Ni776   1.909       .  S
O771        C780   1.276       .  A
O772       Ni776   1.888   1_556  S
O772        C779   1.285       .  A
O773       Ni776   1.943       .  S
O773        C778   1.283       .  A
O774       Ni944   1.935       .  S
O774        C777   1.283       .  A
Ni775       O936   1.947       .  S
Ni775      Ni944   2.387       .  S
Ni776       O942   1.935   1_554  S
Ni776      Ni943   2.387       .  S
C779        C973   1.445       .  S
C779        O937   1.264       .  A
C780        C980   1.450       .  S
C780        O938   1.276       .  A
C781       Br788   1.930       .  S
C781       C1118   1.434       .  A
C781        C954   1.410       .  A
C782       C1117   1.434       .  A
C782        C783   1.412       .  A
C783       Br790   1.911       .  S
C783        C952   1.412       .  A
C784       Br789   1.906       .  S
C784        C951   1.412       .  A
C784        C785   1.401       .  A
C785       C1122   1.397       .  A
C786       Br787   1.924       .  S
C786        C949   1.410   1_554  A
C786       C1121   1.397       .  A
C791       Br798   1.882       .  S
C791        C792   1.397       .  A
C791        C796   1.396       .  A
C792       C1129   1.403       .  A
C793       Br800   1.929       .  S
C793       C1128   1.403       .  A
C793        C794   1.397       .  A
C794       Br799   1.897       .  S
C794       C1131   1.408       .  A
C795       C1130   1.408       .  A
C795        C796   1.396       .  A
C796       Br797   1.923       .  S
C801       Br808   1.924       .  S
C801        C802   1.411       .  A
C802        C971   1.428       .  A
C803       Br810   1.928       .  S
C803        C970   1.428       .  A
C804       Br809   1.936       .  S
C804        C973   1.390       .  A
C805        C947   1.445       .  S
C805        C972   1.390       .  A
C805        C806   1.403       .  A
C806       Br807   1.921       .  S
C811       Br818   1.925       .  S
C811        C812   1.401       .  A
C811        C816   1.409       .  A
C812        C948   1.450       .  S
C812        C981   1.397       .  A
C813       Br820   1.923       .  S
C813        C980   1.397       .  A
C813        C814   1.405       .  A
C814       Br819   1.931       .  S
C814        C983   1.429       .  A
C815        C982   1.429       .  A
C815        C816   1.421       .  A
C816       Br817   1.926       .  S
C821       Br828   1.910   1_565  S
C821        C822   1.415   1_565  A
C821       C1162   1.404       .  A
C823       Br830   1.928       .  S
C823       C1160   1.388   1_545  A
C824       Br829   1.935       .  S
C824       C1159   1.388       .  A
C825        C826   1.401       .  A
C826       Br827   1.926       .  S
C826       C1157   1.404       .  A
C831       Br838   1.930       .  S
C831        C832   1.427       .  A
C831        C836   1.409       .  A
C833       Br840   1.928       .  S
C833        C834   1.415       .  A
C834       Br839   1.922       .  S
C835        C836   1.397       .  A
C836       Br837   1.916       .  S
C841        N842   1.374       .  A
C841        N846   1.374       .  A
C841        C945   1.492       .  S
N842        C843   1.364       .  A
C843        N844   1.370       .  A
C843        C876   1.519       .  S
N844        C845   1.369       .  A
C845        N846   1.367       .  A
C845        C932   1.519       .  S
C847        N848   1.369       .  A
C847        N852   1.371       .  A
C847        C917   1.498       .  S
N848        C849   1.368       .  A
C849        N850   1.365       .  A
C849        C946   1.502       .  S
N850        C851   1.365       .  A
C851        N852   1.368       .  A
C851        C903   1.498       .  S
C853        N854   1.366       .  A
C853        N858   1.367       .  A
C853        C918   1.500       .  S
N854        C855   1.368       .  A
C855        N856   1.370       .  A
C855        C890   1.512       .  S
N856        C857   1.377       .  A
C857        N858   1.364       .  A
C857        C931   1.500       .  S
C859        N860   1.369       .  A
C859        N864   1.368       .  A
C859        C889   1.510       .  S
N860        C861   1.370       .  A
C861        N862   1.367       .  A
C861        C904   1.501       .  S
N862        C863   1.365       .  A
C863        N864   1.372       .  A
C863        C875   1.497       .  S
O865       Ni873   1.949       .  S
O865        C875   1.288       .  A
O866        C876   1.291       .  A
O867       Ni873   1.880       .  S
O868       Ni873   1.902       .  S
O869       Ni874   1.919       .  S
O869        C878   1.284   1_655  A
O870       Ni874   1.925       .  S
O870        C877   1.279       .  A
O871       Ni874   1.939       .  S
O871        C876   1.283       .  A
O872        C875   1.283       .  A
C877        C990   1.476       .  S
C878       C1000   1.493       .  S
O879        C889   1.286       .  A
O880       Ni887   1.942       .  S
O880        C890   1.286       .  A
O881       Ni887   1.923       .  S
O881        C891   1.283   1_556  A
O882       Ni887   1.921       .  S
O882        C892   1.282       .  A
O883       Ni888   1.877       .  S
O884       Ni888   1.881       .  S
O885        C890   1.288       .  A
O886       Ni888   1.954       .  S
O886        C889   1.288       .  A
C891        C983   1.488       .  S
C892        C970   1.475       .  S
O893      Ni1237   1.937       .  S
O893        C903   1.284       .  A
O894       Ni901   1.937       .  S
O894        C904   1.284       .  A
O895       Ni901   1.900       .  S
O895       C1241   1.272       .  A
O896       Ni901   1.871   1_565  S
O896       C1242   1.280       .  A
O897       Ni902   1.913       .  S
O897        C906   1.274       .  A
O898       Ni902   1.904       .  S
O898        C905   1.284       .  A
O899      Ni1238   1.949   1_545  S
O899        C904   1.289       .  A
O900       Ni902   1.952       .  S
O900        C903   1.287       .  A
Ni901      O1229   1.937   1_545  S
Ni901     Ni1238   2.388   1_545  S
Ni902      O1235   1.949       .  S
Ni902     Ni1237   2.388       .  S
C905        C963   1.461       .  S
C905       O1231   1.272       .  A
C906        C953   1.464       .  S
C906       O1232   1.280       .  A
O907        C917   1.284       .  A
O908       Ni915   1.935       .  S
O908        C918   1.284       .  A
O909       Ni915   1.921       .  S
O909        C919   1.278       .  A
O910       Ni915   1.897       .  S
O910        C920   1.283       .  A
O911       Ni916   1.879   1_655  S
O912       Ni916   1.861       .  S
O913        C918   1.288       .  A
O914       Ni916   1.952   1_655  S
O914        C917   1.288       .  A
O921      Ni1265   1.972       .  S
O921        C931   1.293       .  A
O922       Ni929   1.972       .  S
O922        C932   1.293       .  A
O923       Ni929   1.875       .  S
O923       C1269   1.268       .  A
O924       Ni929   1.880       .  S
O924       C1270   1.271   1_545  A
O925       Ni930   1.927       .  S
O925        C934   1.286       .  A
O926       Ni930   1.919       .  S
O926        C933   1.286       .  A
O927      Ni1266   1.940   1_545  S
O927        C932   1.284       .  A
O928       Ni930   1.919       .  S
O928        C931   1.278       .  A
Ni929      O1257   1.972   1_545  S
Ni929     Ni1266   2.384   1_545  S
Ni930      O1263   1.940       .  S
Ni930     Ni1265   2.384       .  S
C933        C960   1.455       .  S
C933       O1259   1.268       .  A
C934        C950   1.492       .  S
C934       O1260   1.271       .  A
O935       Ni943   1.950   1_556  S
O935        C945   1.288       .  A
O936        C946   1.285       .  A
O937       Ni943   1.881   1_556  S
O938       Ni943   1.864       .  S
O939       Ni944   1.909       .  S
O939        C948   1.276       .  A
O940       Ni944   1.888       .  S
O940        C947   1.285       .  A
O941       Ni944   1.943       .  S
O941        C946   1.283       .  A
O942        C945   1.283       .  A
C949       Br956   1.930       .  S
C949       C1286   1.434       .  A
C950       C1285   1.434       .  A
C950        C951   1.412   1_556  A
C951       Br958   1.911   1_554  S
C952       Br957   1.906       .  S
C952        C953   1.401       .  A
C953       C1290   1.397       .  A
C954       Br955   1.924       .  S
C954       C1289   1.397       .  A
C959       Br966   1.882       .  S
C959        C960   1.397       .  A
C959        C964   1.396       .  A
C960       C1297   1.403       .  A
C961       Br968   1.929       .  S
C961       C1296   1.403       .  A
C961        C962   1.397       .  A
C962       Br967   1.897       .  S
C962       C1299   1.408       .  A
C963       C1298   1.408       .  A
C963        C964   1.396       .  A
C964       Br965   1.923       .  S
C969       Br976   1.924       .  S
C969        C970   1.411       .  A
C971       Br978   1.928       .  S
C972       Br977   1.936       .  S
C973        C974   1.403       .  A
C974       Br975   1.921       .  S
C979       Br986   1.925       .  S
C979        C980   1.401       .  A
C979        C984   1.409       .  A
C981       Br988   1.923       .  S
C981        C982   1.405       .  A
C982       Br987   1.931       .  S
C983        C984   1.421       .  A
C984       Br985   1.926       .  S
C989       Br996   1.910   1_565  S
C989        C990   1.415   1_565  A
C989       C1330   1.404       .  A
C991       Br998   1.928       .  S
C991       C1328   1.388   1_545  A
C992       Br997   1.935       .  S
C992       C1327   1.388       .  A
C993        C994   1.401       .  A
C994       Br995   1.926       .  S
C994       C1325   1.404       .  A
C999      Br1006   1.930       .  S
C999       C1000   1.427       .  A
C999       C1004   1.409       .  A
C1001     Br1008   1.928       .  S
C1001      C1002   1.415       .  A
C1002     Br1007   1.922       .  S
C1003      C1004   1.397       .  A
C1004     Br1005   1.916       .  S
C1009      N1010   1.374       .  A
C1009      N1014   1.374       .  A
C1009      C1113   1.492       .  S
N1010      C1011   1.364       .  A
C1011      N1012   1.370       .  A
C1011      C1044   1.519       .  S
N1012      C1013   1.369       .  A
C1013      N1014   1.367       .  A
C1013      C1100   1.519       .  S
C1015      N1016   1.369       .  A
C1015      N1020   1.371       .  A
C1015      C1085   1.498       .  S
N1016      C1017   1.368       .  A
C1017      N1018   1.365       .  A
C1017      C1114   1.502       .  S
N1018      C1019   1.365       .  A
C1019      N1020   1.368       .  A
C1019      C1071   1.498       .  S
C1021      N1022   1.366       .  A
C1021      N1026   1.367       .  A
C1021      C1086   1.500       .  S
N1022      C1023   1.368       .  A
C1023      N1024   1.370       .  A
C1023      C1058   1.512       .  S
N1024      C1025   1.377       .  A
C1025      N1026   1.364       .  A
C1025      C1099   1.500       .  S
C1027      N1028   1.369       .  A
C1027      N1032   1.368       .  A
C1027      C1057   1.510       .  S
N1028      C1029   1.370       .  A
C1029      N1030   1.367       .  A
C1029      C1072   1.501       .  S
N1030      C1031   1.365       .  A
C1031      N1032   1.372       .  A
C1031      C1043   1.497       .  S
O1033     Ni1041   1.949       .  S
O1033      C1043   1.288       .  A
O1034      C1044   1.291       .  A
O1035     Ni1041   1.880       .  S
O1036     Ni1041   1.902       .  S
O1037     Ni1042   1.919       .  S
O1037      C1046   1.284   1_655  A
O1038     Ni1042   1.925       .  S
O1038      C1045   1.279       .  A
O1039     Ni1042   1.939       .  S
O1039      C1044   1.283       .  A
O1040      C1043   1.283       .  A
C1045      C1158   1.476       .  S
C1046      C1168   1.493       .  S
O1047     Ni1223   1.947   1_554  S
O1047      C1057   1.286       .  A
O1048     Ni1055   1.942       .  S
O1048      C1058   1.286       .  A
O1049     Ni1055   1.923       .  S
O1049      C1059   1.283       .  A
O1050     Ni1055   1.921       .  S
O1050      C1060   1.282       .  A
O1051     Ni1056   1.877   1_556  S
O1051      C1228   1.274       .  A
O1052     Ni1056   1.881       .  S
O1052      C1227   1.272       .  A
O1053     Ni1224   1.958       .  S
O1053      C1058   1.288       .  A
O1054     Ni1056   1.954       .  S
O1054      C1057   1.288       .  A
Ni1055     O1215   1.947       .  S
Ni1055    Ni1224   2.378       .  S
Ni1056     O1221   1.958   1_554  S
Ni1056    Ni1223   2.378   1_554  S
C1059      C1151   1.488       .  S
C1059      O1220   1.272       .  A
C1060      C1138   1.475       .  S
C1060      O1219   1.274       .  A
O1061      C1071   1.284       .  A
O1062     Ni1069   1.937       .  S
O1062      C1072   1.284       .  A
O1063     Ni1069   1.900       .  S
O1064     Ni1069   1.871       .  S
O1065     Ni1070   1.913       .  S
O1065      C1074   1.274       .  A
O1066     Ni1070   1.904   1_545  S
O1066      C1073   1.284       .  A
O1067      C1072   1.289       .  A
O1068     Ni1070   1.952       .  S
O1068      C1071   1.287       .  A
C1073      C1131   1.461       .  S
C1074      C1121   1.464       .  S
O1075      C1085   1.284       .  A
O1076     Ni1083   1.935       .  S
O1076      C1086   1.284       .  A
O1077     Ni1083   1.921       .  S
O1077      C1087   1.278       .  A
O1078     Ni1083   1.897       .  S
O1078      C1088   1.283       .  A
O1079     Ni1084   1.878   1_655  S
O1080     Ni1084   1.861       .  S
O1081      C1086   1.288       .  A
O1082     Ni1084   1.952   1_655  S
O1082      C1085   1.288       .  A
O1089      C1099   1.293       .  A
O1090     Ni1097   1.972       .  S
O1090      C1100   1.293       .  A
O1091     Ni1097   1.875       .  S
O1092     Ni1097   1.880       .  S
O1093     Ni1098   1.927       .  S
O1093      C1102   1.286       .  A
O1094     Ni1098   1.919   1_545  S
O1094      C1101   1.286       .  A
O1095      C1100   1.284       .  A
O1096     Ni1098   1.919       .  S
O1096      C1099   1.278       .  A
C1101      C1128   1.455       .  S
C1102      C1118   1.492       .  S
O1103     Ni1111   1.950       .  S
O1103      C1113   1.288       .  A
O1104     Ni1279   1.947       .  S
O1104      C1114   1.285       .  A
O1105     Ni1111   1.881       .  S
O1105      C1283   1.264       .  A
O1106     Ni1111   1.864       .  S
O1106      C1284   1.276       .  A
O1107     Ni1112   1.909       .  S
O1107      C1116   1.276       .  A
O1108     Ni1112   1.888   1_556  S
O1108      C1115   1.285       .  A
O1109     Ni1112   1.943       .  S
O1109      C1114   1.283       .  A
O1110     Ni1280   1.935       .  S
O1110      C1113   1.283       .  A
Ni1111     O1272   1.947       .  S
Ni1111    Ni1280   2.387       .  S
Ni1112     O1278   1.935   1_554  S
Ni1112    Ni1279   2.387       .  S
C1115      C1309   1.445       .  S
C1115      O1273   1.264       .  A
C1116      C1316   1.450       .  S
C1116      O1274   1.276       .  A
C1117     Br1124   1.930       .  S
C1117      C1290   1.410       .  A
C1118      C1119   1.412       .  A
C1119     Br1126   1.911       .  S
C1119      C1288   1.412       .  A
C1120     Br1125   1.906       .  S
C1120      C1287   1.412       .  A
C1120      C1121   1.401       .  A
C1122     Br1123   1.924       .  S
C1122      C1285   1.410   1_554  A
C1127     Br1134   1.882       .  S
C1127      C1128   1.397       .  A
C1127      C1132   1.396       .  A
C1129     Br1136   1.929       .  S
C1129      C1130   1.397       .  A
C1130     Br1135   1.897       .  S
C1131      C1132   1.396       .  A
C1132     Br1133   1.923       .  S
C1137     Br1144   1.924       .  S
C1137      C1138   1.411       .  A
C1138      C1307   1.428       .  A
C1139     Br1146   1.928       .  S
C1139      C1306   1.428       .  A
C1140     Br1145   1.936       .  S
C1140      C1309   1.390       .  A
C1141      C1283   1.445       .  S
C1141      C1308   1.390       .  A
C1141      C1142   1.403       .  A
C1142     Br1143   1.921       .  S
C1147     Br1154   1.925       .  S
C1147      C1148   1.401       .  A
C1147      C1152   1.409       .  A
C1148      C1284   1.450       .  S
C1148      C1317   1.397       .  A
C1149     Br1156   1.923       .  S
C1149      C1316   1.397       .  A
C1149      C1150   1.405       .  A
C1150     Br1155   1.931       .  S
C1150      C1319   1.429       .  A
C1151      C1318   1.429       .  A
C1151      C1152   1.421       .  A
C1152     Br1153   1.926       .  S
C1157     Br1164   1.910       .  S
C1157      C1158   1.415       .  A
C1159     Br1166   1.928       .  S
C1160     Br1165   1.935       .  S
C1161      C1162   1.401       .  A
C1162     Br1163   1.926       .  S
C1167     Br1174   1.930       .  S
C1167      C1168   1.427       .  A
C1167      C1172   1.409       .  A
C1169     Br1176   1.928       .  S
C1169      C1170   1.415       .  A
C1170     Br1175   1.922       .  S
C1171      C1172   1.397       .  A
C1172     Br1173   1.916       .  S
C1177      N1178   1.374       .  A
C1177      N1182   1.374       .  A
C1177      C1281   1.492       .  S
N1178      C1179   1.364       .  A
C1179      N1180   1.370       .  A
C1179      C1212   1.519       .  S
N1180      C1181   1.369       .  A
C1181      N1182   1.367       .  A
C1181      C1268   1.519       .  S
C1183      N1184   1.369       .  A
C1183      N1188   1.371       .  A
C1183      C1253   1.498       .  S
N1184      C1185   1.368       .  A
C1185      N1186   1.365       .  A
C1185      C1282   1.502       .  S
N1186      C1187   1.365       .  A
C1187      N1188   1.368       .  A
C1187      C1239   1.498       .  S
C1189      N1190   1.366       .  A
C1189      N1194   1.367       .  A
C1189      C1254   1.500       .  S
N1190      C1191   1.368       .  A
C1191      N1192   1.370       .  A
C1191      C1226   1.512       .  S
N1192      C1193   1.377       .  A
C1193      N1194   1.364       .  A
C1193      C1267   1.500       .  S
C1195      N1196   1.369       .  A
C1195      N1200   1.368       .  A
C1195      C1225   1.510       .  S
N1196      C1197   1.370       .  A
C1197      N1198   1.367       .  A
C1197      C1240   1.501       .  S
N1198      C1199   1.365       .  A
C1199      N1200   1.372       .  A
C1199      C1211   1.497       .  S
O1201     Ni1209   1.949       .  S
O1201      C1211   1.288       .  A
O1202      C1212   1.291       .  A
O1203     Ni1209   1.880       .  S
O1204     Ni1209   1.902       .  S
O1205     Ni1210   1.919       .  S
O1205      C1214   1.284   1_655  A
O1206     Ni1210   1.925       .  S
O1206      C1213   1.279       .  A
O1207     Ni1210   1.939       .  S
O1207      C1212   1.283       .  A
O1208      C1211   1.283       .  A
C1213      C1326   1.476       .  S
C1214      C1336   1.493       .  S
O1215      C1225   1.286       .  A
O1216     Ni1223   1.942       .  S
O1216      C1226   1.286       .  A
O1217     Ni1223   1.923       .  S
O1217      C1227   1.283   1_556  A
O1218     Ni1223   1.921       .  S
O1218      C1228   1.282       .  A
O1219     Ni1224   1.877       .  S
O1220     Ni1224   1.881       .  S
O1221      C1226   1.288       .  A
O1222     Ni1224   1.954       .  S
O1222      C1225   1.288       .  A
C1227      C1319   1.488       .  S
C1228      C1306   1.475       .  S
O1229      C1239   1.284       .  A
O1230     Ni1237   1.937       .  S
O1230      C1240   1.284       .  A
O1231     Ni1237   1.900       .  S
O1232     Ni1237   1.871       .  S
O1233     Ni1238   1.913       .  S
O1233      C1242   1.274       .  A
O1234     Ni1238   1.904   1_545  S
O1234      C1241   1.284       .  A
O1235      C1240   1.289       .  A
O1236     Ni1238   1.952       .  S
O1236      C1239   1.287       .  A
C1241      C1299   1.461       .  S
C1242      C1289   1.464       .  S
O1243      C1253   1.284       .  A
O1244     Ni1251   1.935       .  S
O1244      C1254   1.284       .  A
O1245     Ni1251   1.921       .  S
O1245      C1255   1.278       .  A
O1246     Ni1251   1.897       .  S
O1246      C1256   1.283       .  A
O1247     Ni1252   1.879   1_655  S
O1248     Ni1252   1.861       .  S
O1249      C1254   1.288       .  A
O1250     Ni1252   1.952   1_655  S
O1250      C1253   1.288       .  A
O1257      C1267   1.293       .  A
O1258     Ni1265   1.972       .  S
O1258      C1268   1.293       .  A
O1259     Ni1265   1.875       .  S
O1260     Ni1265   1.880       .  S
O1261     Ni1266   1.927       .  S
O1261      C1270   1.286       .  A
O1262     Ni1266   1.919   1_545  S
O1262      C1269   1.286       .  A
O1263      C1268   1.284       .  A
O1264     Ni1266   1.919       .  S
O1264      C1267   1.278       .  A
C1269      C1296   1.455       .  S
C1270      C1286   1.492       .  S
O1271     Ni1279   1.950   1_556  S
O1271      C1281   1.288       .  A
O1272      C1282   1.285       .  A
O1273     Ni1279   1.881   1_556  S
O1274     Ni1279   1.864       .  S
O1275     Ni1280   1.909       .  S
O1275      C1284   1.276       .  A
O1276     Ni1280   1.888       .  S
O1276      C1283   1.285       .  A
O1277     Ni1280   1.943       .  S
O1277      C1282   1.283       .  A
O1278      C1281   1.283       .  A
C1285     Br1292   1.930       .  S
C1286      C1287   1.412   1_556  A
C1287     Br1294   1.911   1_554  S
C1288     Br1293   1.906       .  S
C1288      C1289   1.401       .  A
C1290     Br1291   1.924       .  S
C1295     Br1302   1.882       .  S
C1295      C1296   1.397       .  A
C1295      C1300   1.396       .  A
C1297     Br1304   1.929       .  S
C1297      C1298   1.397       .  A
C1298     Br1303   1.897       .  S
C1299      C1300   1.396       .  A
C1300     Br1301   1.923       .  S
C1305     Br1312   1.924       .  S
C1305      C1306   1.411       .  A
C1307     Br1314   1.928       .  S
C1308     Br1313   1.936       .  S
C1309      C1310   1.403       .  A
C1310     Br1311   1.921       .  S
C1315     Br1322   1.925       .  S
C1315      C1316   1.401       .  A
C1315      C1320   1.409       .  A
C1317     Br1324   1.923       .  S
C1317      C1318   1.405       .  A
C1318     Br1323   1.931       .  S
C1319      C1320   1.421       .  A
C1320     Br1321   1.926       .  S
C1325     Br1332   1.910       .  S
C1325      C1326   1.415       .  A
C1327     Br1334   1.928       .  S
C1328     Br1333   1.935       .  S
C1329      C1330   1.401       .  A
C1330     Br1331   1.926       .  S
C1335     Br1342   1.930       .  S
C1335      C1336   1.427       .  A
C1335      C1340   1.409       .  A
C1337     Br1344   1.928       .  S
C1337      C1338   1.415       .  A
C1338     Br1343   1.922       .  S
C1339      C1340   1.397       .  A
C1340     Br1341   1.916       .  S
