geometry optimzed in LAMMPS
_audit_creation_date              2020-12-01 
_audit_creation_method            'lammps2cif' 
_symmetry_space_group_name_H-M    'P1' 
_symmetry_Int_Tables_number       1 
_symmetry_cell_setting            triclinic 
loop_ 
_symmetry_equiv_pos_as_xyz 
  x,y,z 
_cell_length_a                    27.10116604 
_cell_length_b                    27.23943594141052 
_cell_length_c                    72.58829054601348 
_cell_angle_alpha                 90.0758995816605 
_cell_angle_beta                  89.86606856951998 
_cell_angle_gamma                 120.23295185698427 
loop_ 
_atom_site_label 
_atom_site_type_symbol 
_atom_site_fract_x 
_atom_site_fract_y 
_atom_site_fract_z 
_atom_site_charge 
Zn1        Zn  0.08818104  0.29303739  0.37130241     1.49700
Zn2        Zn  0.20691969  0.29662459  0.37150391     1.49400
Zn3        Zn  0.20345891  0.41138602  0.37149437     1.49100
Zn4        Zn  0.16541939  0.33312679  0.40754396     1.49500
O5          O  0.16600546  0.33359726  0.38072211    -1.82900
O6          O  0.08122448  0.23690170  0.35223418    -0.73600
O7          O  0.26449118  0.34572704  0.35260954    -0.73400
O8          O  0.15374507  0.42037521  0.35303057    -0.72900
O9          O  0.15848458  0.22947414  0.35569384    -0.73600
O10         O  0.06954510  0.34167159  0.35568823    -0.73200
O11         O  0.26986897  0.42938711  0.35533140    -0.73800
O12         O  0.20543988  0.41424651  0.41722726    -0.73200
O13         O  0.24044829  0.27310486  0.39196963    -0.73900
O14         O  0.22823383  0.46843778  0.39205958    -0.73300
O15         O  0.20683434  0.29340653  0.41717029    -0.73800
O16         O  0.08343729  0.29114074  0.41701166    -0.73700
O17         O  0.03011077  0.25829000  0.39166305    -0.73500
C18         C  0.11286734  0.21730623  0.34716715     0.78300
C19         C  0.28328794  0.39645097  0.34719779     0.78800
C20         C  0.10246655  0.38863791  0.34778463     0.77800
C21         C  0.22725878  0.46277924  0.40948221     0.78100
C22         C  0.23477396  0.27292283  0.40937969     0.79300
C23         C  0.03500417  0.26320802  0.40910159     0.78300
Zn24       Zn  0.99713387  0.49934525  0.26759367     1.49700
Zn25       Zn  0.03838847  0.07911742  0.23771788     1.49400
Zn26       Zn  0.03972707  0.46079301  0.23829319     1.49100
Zn27       Zn  0.41887777  0.45839471  0.23740080     1.49500
O28         O  0.99871233  0.49947040  0.24229259    -1.82900
O29         O  0.06977498  0.05878012  0.27756851    -0.73600
O30         O  0.10859055  0.09583468  0.22286550    -0.73400
O31         O  0.06199746  0.44192982  0.26333521    -0.72900
O32         O  0.05992330  0.12318579  0.26238492    -0.73600
O33         O  0.98356616  0.42667574  0.27744800    -0.73200
O34         O  0.10934005  0.01384852  0.22326079    -0.73800
O35         O  0.40416145  0.38902400  0.22277588    -0.73200
O36         O  0.48465566  0.09461480  0.22281566    -0.73900
O37         O  0.48726442  0.38975852  0.22390001    -0.73300
O38         O  0.40215599  0.01133372  0.22247880    -0.73800
O39         O  0.37431353  0.43513907  0.26200148    -0.73700
O40         O  0.43683520  0.51279069  0.27641360    -0.73500
C41         C  0.07492974  0.10745902  0.27687429     0.78300
C42         C  0.13056777  0.06561276  0.21832599     0.78800
C43         C  0.02953591  0.42540779  0.27750792     0.77800
C44         C  0.43531106  0.36759191  0.21878084     0.78100
C45         C  0.43255369  0.06363270  0.21794758     0.79300
C46         C  0.38923438  0.46719277  0.27620045     0.78300
C47         C  0.16310511  0.33197172  0.80212477     0.46600
H48         H  0.16266499  0.33186037  0.81742585    -0.02400
C49         C  0.16457932  0.33320554  0.76617381     0.46700
H50         H  0.16517881  0.33368872  0.75084859    -0.02400
C51         C  0.13275744  0.36172596  0.79344842    -0.16100
C52         C  0.22412241  0.36356096  0.79375382    -0.15800
C53         C  0.13413907  0.27187073  0.79333705    -0.16200
C54         C  0.13396318  0.36201026  0.77457836    -0.16200
C55         C  0.22392553  0.36339371  0.77484348    -0.15800
C56         C  0.13498409  0.27348453  0.77440294    -0.16100
C57         C  0.49783211  0.49938217  0.82598174     0.46600
H58         H  0.49715226  0.49943069  0.81068303    -0.02400
C59         C  0.49910802  0.49840753  0.86192426     0.46700
H60         H  0.49964126  0.49801111  0.87724753    -0.02400
C61         C  0.02724098  0.05954511  0.83474626    -0.16100
C62         C  0.43747926  0.46766153  0.83482560    -0.15800
C63         C  0.02894981  0.46981862  0.83420751    -0.16200
C64         C  0.02766697  0.05807488  0.85366813    -0.16200
C65         C  0.43918048  0.46782378  0.85371688    -0.15800
C66         C  0.02933772  0.46983797  0.85307920    -0.16100
C67         C  0.16507812  0.33340923  0.49240054     0.46600
H68         H  0.16491645  0.33334039  0.47709936    -0.02400
C69         C  0.16639545  0.33382034  0.52836215     0.46700
H70         H  0.16690173  0.33404180  0.54368274    -0.02400
C71         C  0.19625369  0.39379622  0.50092488    -0.16100
C72         C  0.10468100  0.30317374  0.50123605    -0.15800
C73         C  0.19558977  0.30345424  0.50082694    -0.16200
C74         C  0.19699319  0.39326463  0.51980551    -0.16200
C75         C  0.10620294  0.30464190  0.52016502    -0.15800
C76         C  0.19512143  0.30324457  0.51972345    -0.16100
C77         C  0.33059646  0.16578571  0.43249599     0.46600
H78         H  0.33046698  0.16541169  0.41717452    -0.02400
C79         C  0.33105068  0.16659576  0.46846008     0.46700
H80         H  0.33085987  0.16682267  0.48376117    -0.02400
C81         C  0.39058389  0.19538142  0.44084945    -0.16100
C82         C  0.30139475  0.19616808  0.44092099    -0.15800
C83         C  0.30010226  0.10643699  0.44111038    -0.16200
C84         C  0.39163821  0.19700493  0.45978062    -0.16200
C85         C  0.30058540  0.19629857  0.45981450    -0.15800
C86         C  0.30033645  0.10611447  0.45999075    -0.16100
Zn87       Zn  0.29524201  0.08824899  0.58951274     1.49700
Zn88       Zn  0.40814089  0.20917565  0.58967021     1.49400
Zn89       Zn  0.33149830  0.16632093  0.55340429     1.49100
Zn90       Zn  0.28664758  0.20052905  0.58921831     1.49500
O91         O  0.33031220  0.16600689  0.58025705    -1.82900
O92         O  0.34625049  0.08058169  0.60776081    -0.73600
O93         O  0.46660330  0.24277115  0.56941666    -0.73400
O94         O  0.29229586  0.08515810  0.54379476    -0.72900
O95         O  0.42724081  0.16320758  0.60639512    -0.73600
O96         O  0.27027024  0.03105599  0.56896461    -0.73200
O97         O  0.41364426  0.20889730  0.54405135    -0.73800
O98         O  0.25503502  0.22528782  0.56850875    -0.73200
O99         O  0.41474625  0.26728079  0.60774014    -0.73900
O100        O  0.28968877  0.20539869  0.54348210    -0.73300
O101        O  0.33251414  0.26618135  0.60592726    -0.73800
O102        O  0.22684787  0.14934915  0.60721639    -0.73700
O103        O  0.22942213  0.06927624  0.60607662    -0.73500
C104        C  0.39608997  0.11485623  0.61373389     0.78300
C105        C  0.46196059  0.23733078  0.55199336     0.78800
C106        C  0.27091206  0.03666834  0.55154376     0.77800
C107        C  0.26140443  0.22574670  0.55112532     0.78100
C108        C  0.38065638  0.28314542  0.61347516     0.79300
C109        C  0.21151434  0.09993153  0.61326817     0.78300
Zn110      Zn  0.45813438  0.41977534  0.72283708     1.49700
Zn111      Zn  0.99785632  0.99993932  0.69319148     1.49400
Zn112      Zn  0.45741651  0.03852976  0.72296550     1.49100
Zn113      Zn  0.07776793  0.03965121  0.72325266     1.49500
O114        O  0.99787597  0.99950560  0.71850617    -1.82900
O115        O  0.43649799  0.37687080  0.69804158    -0.73600
O116        O  0.51194781  0.07317040  0.68365072    -0.73400
O117        O  0.38818441  0.48510794  0.73803616    -0.72900
O118        O  0.42436337  0.44085224  0.68349415    -0.73600
O119        O  0.38818487  0.40271907  0.73777076    -0.73200
O120        O  0.43454820  0.05884008  0.69825747    -0.73800
O121        O  0.09372713  0.10960198  0.73788906    -0.73200
O122        O  0.05704335  0.98559776  0.68384070    -0.73900
O123        O  0.01073588  0.10918789  0.73742882    -0.73300
O124        O  0.12152391  0.06181861  0.69849354    -0.73800
O125        O  0.09393453  0.48621290  0.73817029    -0.73700
O126        O  0.01132789  0.40313656  0.73757946    -0.73500
C127        C  0.42038187  0.39263822  0.68382083     0.78300
C128        C  0.46672540  0.07581049  0.68402343     0.78800
C129        C  0.36668311  0.43305437  0.74266440     0.77800
C130        C  0.06297400  0.13123366  0.74222453     0.78100
C131        C  0.10546781  0.03019146  0.68417828     0.79300
C132        C  0.06333994  0.43381085  0.74256493     0.78300
C133        C  0.33426335  0.16776449  0.15876792     0.46600
H134        H  0.33474683  0.16847308  0.14346687    -0.02400
C135        C  0.33288253  0.16582479  0.19471875     0.46700
H136        H  0.33240577  0.16499470  0.21004286    -0.02400
C137        C  0.27327499  0.13854558  0.16719185    -0.16100
C138        C  0.36279168  0.13599929  0.16725927    -0.15800
C139        C  0.36501825  0.22762449  0.16770210    -0.16200
C140        C  0.27350614  0.13777041  0.18611263    -0.16200
C141        C  0.36166786  0.13543397  0.18612672    -0.15800
C142        C  0.36414900  0.22565138  0.18661452    -0.16100
C143        C  0.50000837  0.00019152  0.13502178     0.46600
H144        H  0.50089725  0.00052766  0.15032084    -0.02400
C145        C  0.49814703  0.99973803  0.09905588     0.46700
H146        H  0.49732009  0.99964824  0.08373722    -0.02400
C147        C  0.47066393  0.43976816  0.12650185    -0.16100
C148        C  0.46858516  0.02921590  0.12669022    -0.15800
C149        C  0.06019593  0.03111125  0.12606518    -0.16200
C150        C  0.46989358  0.44028564  0.10757262    -0.16200
C151        C  0.46776429  0.02845916  0.10783498    -0.15800
C152        C  0.05837487  0.03080385  0.10717090    -0.16100
Zn153      Zn  0.08530572  0.29302484  0.90453073     1.49700
Zn154      Zn  0.20447291  0.29266683  0.90507716     1.49400
Zn155      Zn  0.20547024  0.41240231  0.90504399     1.49100
Zn156      Zn  0.16465411  0.33267156  0.93457570     1.49500
O157        O  0.16502354  0.33283274  0.90930065    -1.82900
O158        O  0.06867572  0.22248487  0.89003465    -0.73600
O159        O  0.27467975  0.34563828  0.89044077    -0.73400
O160        O  0.15291938  0.42925647  0.88994971    -0.72900
O161        O  0.15146334  0.22256397  0.89045596    -0.73600
O162        O  0.06992077  0.34647605  0.88942657    -0.73200
O163        O  0.27566415  0.42854409  0.89059070    -0.73800
O164        O  0.14980275  0.39108874  0.94430938    -0.73200
O165        O  0.22607443  0.27143570  0.92976727    -0.73900
O166        O  0.22710649  0.45511864  0.92988233    -0.73300
O167        O  0.23817485  0.34759337  0.94431282    -0.73800
O168        O  0.10549598  0.25859566  0.94362413    -0.73700
O169        O  0.04171536  0.27196304  0.92928008    -0.73500
C170        C  0.09925424  0.20066025  0.88568561     0.78300
C171        C  0.29694436  0.39785057  0.88592955     0.78800
C172        C  0.10091917  0.39870692  0.88490284     0.77800
C173        C  0.19489242  0.43912951  0.94410868     0.78100
C174        C  0.24236042  0.30348792  0.94396763     0.79300
C175        C  0.05727087  0.25513300  0.94338363     0.78300
Zn176      Zn  0.37839111  0.24398624  0.03818559     1.49700
Zn177      Zn  0.33226295  0.16649192  0.07418328     1.49400
Zn178      Zn  0.25574039  0.13295794  0.03785352     1.49100
Zn179      Zn  0.36638360  0.12132167  0.03844463     1.49500
O180        O  0.33329185  0.16621077  0.04733607    -1.82900
O181        O  0.40807098  0.30146864  0.05867233    -0.73600
O182        O  0.25034091  0.12649442  0.08338521    -0.73400
O183        O  0.24892989  0.18474319  0.02003945    -0.72900
O184        O  0.37257467  0.24783114  0.08381832    -0.73600
O185        O  0.33404092  0.26313109  0.02061751    -0.73200
O186        O  0.19743490  0.10751869  0.05801499    -0.73800
O187        O  0.31374120  0.05986590  0.02120093    -0.73200
O188        O  0.37193608  0.12542630  0.08421173    -0.73900
O189        O  0.23656367  0.06840170  0.02097928    -0.73300
O190        O  0.39289501  0.09164672  0.05920633    -0.73800
O191        O  0.43022643  0.16586875  0.02095928    -0.73700
O192        O  0.43954437  0.25164352  0.02103128    -0.73500
C193        C  0.40067093  0.29624782  0.07603184     0.78300
C194        C  0.20212611  0.10656656  0.07541619     0.78800
C195        C  0.28459701  0.23344278  0.01372880     0.77800
C196        C  0.26539897  0.04727257  0.01457662     0.78100
C197        C  0.39292220  0.09773595  0.07659020     0.79300
C198        C  0.45134947  0.21558601  0.01435843     0.78300
C199        C  0.23469361  0.22867681  0.96520738    -0.12200
C200        C  0.25837700  0.28647782  0.96111104     0.10000
C201        C  0.28896642  0.32717592  0.97481380    -0.12200
C202        C  0.29619743  0.31025500  0.99227659    -0.12200
C203        C  0.27132299  0.25235017  0.99646326     0.10000
C204        C  0.24057823  0.21175495  0.98278697    -0.12200
H205        H  0.20983484  0.19648240  0.95503907     0.14000
H206        H  0.30686124  0.37206700  0.97204920     0.14000
H207        H  0.32107141  0.34224750  0.00249655     0.14000
H208        H  0.22237447  0.16681084  0.98554007     0.14000
C209        C  0.17184762  0.46540546  0.97445719    -0.12200
C210        C  0.21292603  0.47104752  0.96147300     0.10000
C211        C  0.27055739  0.49815183  0.96660558    -0.12200
C212        C  0.28694174  0.01915852  0.98444409    -0.12200
C213        C  0.24603665  0.01440324  0.99736938     0.10000
C214        C  0.18839626  0.98774326  0.99216154    -0.12200
H215        H  0.12693890  0.44345256  0.97089810     0.14000
H216        H  0.30275083  0.50145464  0.95700145     0.14000
H217        H  0.33189916  0.04091161  0.98793025     0.14000
H218        H  0.15622140  0.98456267  0.00174739     0.14000
C219        C  0.02867878  0.20248762  0.97305870    -0.12200
C220        C  0.02488155  0.24004805  0.96067181     0.10000
C221        C  0.00014083  0.27183249  0.96649309    -0.12200
C222        C  0.47998779  0.26662296  0.98448883    -0.12200
C223        C  0.48309602  0.22860806  0.99687438     0.10000
C224        C  0.50712233  0.19612258  0.99093483    -0.12200
H225        H  0.04890761  0.17855122  0.96893804     0.14000
H226        H  0.99842098  0.30234338  0.95735223     0.14000
H227        H  0.46027265  0.29110495  0.98852230     0.14000
H228        H  0.50897284  0.16569665  0.00007587     0.14000
C229        C  0.44451568  0.38966646  0.09623441    -0.12100
C230        C  0.42435697  0.34683734  0.08709826    -0.13700
C231        C  0.41806842  0.07288064  0.08786507    -0.12100
C232        C  0.44041095  0.05230306  0.09688974    -0.13700
C233        C  0.10841961  0.05870363  0.09559135    -0.12100
C234        C  0.15117062  0.08135403  0.08635833    -0.13700
C235        C  0.43537309  0.14044651  0.14465903    -0.12200
C236        C  0.38871195  0.10831333  0.15633116     0.10000
C237        C  0.36942213  0.05016197  0.15862173    -0.12200
C238        C  0.39626024  0.02469319  0.14939299    -0.12200
C239        C  0.44292954  0.05686652  0.13773587     0.10000
C240        C  0.46222223  0.11499647  0.13543636    -0.12200
H241        H  0.45215625  0.18544221  0.14306521     0.14000
H242        H  0.33342328  0.02444688  0.16755654     0.14000
H243        H  0.37956416  0.47967794  0.15101443     0.14000
H244        H  0.49813030  0.14066247  0.12646029     0.14000
C245        C  0.42834971  0.29018034  0.14219931    -0.12200
C246        C  0.39158734  0.28182080  0.15698252     0.10000
C247        C  0.38189458  0.32629630  0.16188383    -0.12200
C248        C  0.40930585  0.37820315  0.15247399    -0.12200
C249        C  0.44578014  0.38640211  0.13761558     0.10000
C250        C  0.45589077  0.34213172  0.13282964    -0.12200
H251        H  0.43656881  0.25698868  0.13802703     0.14000
H252        H  0.35261904  0.32079578  0.17292256     0.14000
H253        H  0.40088188  0.41135442  0.15657574     0.14000
H254        H  0.48513442  0.34761293  0.12178198     0.14000
C255        C  0.21124577  0.07529754  0.14170818    -0.12200
C256        C  0.21973837  0.11324265  0.15605305     0.10000
C257        C  0.17557748  0.12437471  0.16038118    -0.12200
C258        C  0.12343691  0.09685344  0.15092826    -0.12200
C259        C  0.11470786  0.05840871  0.13672659     0.10000
C260        C  0.15911898  0.04778630  0.13225661    -0.12200
H261        H  0.24431463  0.06565158  0.13818555     0.14000
H262        H  0.18138244  0.15437752  0.17114172     0.14000
H263        H  0.09025058  0.10628590  0.15449614     0.14000
H264        H  0.15325108  0.01763593  0.12154011     0.14000
C265        C  0.37430911  0.06642585  0.64415427    -0.12200
C266        C  0.41522392  0.10181489  0.63109305     0.10000
C267        C  0.47306508  0.13184646  0.63614130    -0.12200
C268        C  0.48970834  0.12564447  0.65377849    -0.12200
C269        C  0.44868091  0.09056784  0.66683779     0.10000
C270        C  0.39084037  0.06131233  0.66191631    -0.12200
H271        H  0.32923601  0.04392734  0.64081940     0.14000
H272        H  0.50534501  0.16025912  0.62647703     0.14000
H273        H  0.53474098  0.14777006  0.65717485     0.14000
H274        H  0.35859823  0.03283161  0.67158184     0.14000
C275        C  0.36479965  0.34401075  0.63576664    -0.12200
C276        C  0.39368681  0.31525703  0.63084111     0.10000
C277        C  0.42806183  0.30886872  0.64399985    -0.12200
C278        C  0.43325781  0.33050105  0.66175696    -0.12200
C279        C  0.40517637  0.35999279  0.66658615     0.10000
C280        C  0.37120515  0.36695189  0.65341746    -0.12200
H281        H  0.33719779  0.34856242  0.62600493     0.14000
H282        H  0.44967440  0.28559714  0.64074724     0.14000
H283        H  0.96093820  0.32599020  0.67149992     0.14000
H284        H  0.35006886  0.39063243  0.65674989     0.14000
C285        C  0.15232977  0.02357705  0.63589060    -0.12200
C286        C  0.17929486  0.08095072  0.63067473     0.10000
C287        C  0.18498104  0.12174738  0.64370888    -0.12200
C288        C  0.16478179  0.10558820  0.66166721    -0.12200
C289        C  0.13752154  0.04824736  0.66680620     0.10000
C290        C  0.13098663  0.00730736  0.65373087    -0.12200
H291        H  0.14831055  0.99141899  0.62623318     0.14000
H292        H  0.20687500  0.16648940  0.64021972     0.14000
H293        H  0.16863396  0.13765503  0.67133831     0.14000
H294        H  0.10886375  0.46261875  0.65730246     0.14000
C295        C  0.24579443  0.48648284  0.54030538    -0.12100
C296        C  0.22353927  0.44399420  0.53102615    -0.13700
C297        C  0.01310732  0.26325513  0.54101425    -0.12100
C298        C  0.05599788  0.28307771  0.53177576    -0.13700
C299        C  0.23681750  0.25129306  0.53988928    -0.12100
C300        C  0.21741609  0.27471516  0.53083005    -0.13700
C301        C  0.19026001  0.46051305  0.47830300    -0.12200
C302        C  0.22325339  0.44741790  0.48995251     0.10000
C303        C  0.28158131  0.48748956  0.49204171    -0.12200
C304        C  0.30634001  0.03949436  0.48263739    -0.12200
C305        C  0.27332864  0.05257663  0.47099508     0.10000
C306        C  0.21502252  0.01247653  0.46888641    -0.12200
H307        H  0.14504143  0.43144501  0.47690094     0.14000
H308        H  0.30802431  0.47835641  0.50092278     0.14000
H309        H  0.35156855  0.06858814  0.48403466     0.14000
H310        H  0.18860161  0.02157481  0.45998142     0.14000
C311        C  0.04387203  0.30238252  0.47492792    -0.12200
C312        C  0.05040536  0.27535358  0.49036931     0.10000
C313        C  0.00406867  0.22238359  0.49571938    -0.12200
C314        C  0.45207881  0.19815596  0.48625257    -0.12200
C315        C  0.44562174  0.22512140  0.47078046     0.10000
C316        C  0.49188281  0.27816613  0.46546569    -0.12200
H317        H  0.07853637  0.34266676  0.47028821     0.14000
H318        H  0.00807429  0.19925528  0.50717565     0.14000
H319        H  0.41742315  0.15781189  0.49086677     0.14000
H320        H  0.48788925  0.30124022  0.45398984     0.14000
C321        C  0.19240765  0.23729426  0.47611260    -0.12200
C322        C  0.22319408  0.27762325  0.48976213     0.10000
C323        C  0.27947385  0.29073471  0.49362886    -0.12200
C324        C  0.30405646  0.26321317  0.48429232    -0.12200
C325        C  0.27318871  0.22270527  0.47069588     0.10000
C326        C  0.21699946  0.20978114  0.46677065    -0.12200
H327        H  0.14890679  0.22612755  0.47299869     0.14000
H328        H  0.30439346  0.32225612  0.50396292     0.14000
H329        H  0.34753275  0.27432887  0.48742540     0.14000
H330        H  0.19205712  0.17821442  0.45645149     0.14000
C331        C  0.34760463  0.42290623  0.87496562    -0.12100
C332        C  0.38944097  0.44353244  0.86536424    -0.13700
C333        C  0.07637275  0.42402482  0.87360651    -0.12100
C334        C  0.05540923  0.44499276  0.86412776    -0.13700
C335        C  0.07421138  0.14974843  0.87484561    -0.12100
C336        C  0.05347795  0.10776661  0.86534208    -0.13700
C337        C  0.27459145  0.38741568  0.76355141    -0.12100
C338        C  0.31653023  0.40781063  0.75395218    -0.13700
C339        C  0.08820586  0.40839083  0.75368403    -0.12100
C340        C  0.10880411  0.38709663  0.76319094    -0.13700
C341        C  0.10897675  0.22391030  0.76267604    -0.12100
C342        C  0.08794064  0.18205681  0.75311048    -0.13700
C343        C  0.10060446  0.47370050  0.81140167    -0.12200
C344        C  0.05386664  0.44174290  0.82304951     0.10000
C345        C  0.03361033  0.38333425  0.82514968    -0.12200
C346        C  0.05984506  0.35744495  0.81581879    -0.12200
C347        C  0.10678518  0.38948332  0.80424708     0.10000
C348        C  0.12681908  0.44781560  0.80206780    -0.12200
H349        H  0.11797401  0.51889699  0.80994705     0.14000
H350        H  0.99755840  0.35785250  0.83409566     0.14000
H351        H  0.04265827  0.31228047  0.81733008     0.14000
H352        H  0.16301901  0.47336304  0.79318345     0.14000
C353        C  0.28709346  0.36019649  0.81853074    -0.12200
C354        C  0.27775964  0.39098496  0.80487993     0.10000
C355        C  0.32129771  0.44707645  0.80113199    -0.12200
C356        C  0.37350246  0.47142657  0.81054821    -0.12200
C357        C  0.38303377  0.44053377  0.82410300     0.10000
C358        C  0.33933264  0.38455390  0.82795001    -0.12200
H359        H  0.25451096  0.31682652  0.82157310     0.14000
H360        H  0.31492904  0.47207326  0.79083303     0.14000
H361        H  0.40612247  0.01474833  0.80746701     0.14000
H362        H  0.34578225  0.35946705  0.83819137     0.14000
C363        C  0.11610043  0.17262747  0.79919160    -0.12200
C364        C  0.10777388  0.21788404  0.80424203     0.10000
C365        C  0.07250306  0.21051219  0.81939667    -0.12200
C366        C  0.04487359  0.15871545  0.82890145    -0.12200
C367        C  0.05316733  0.11345170  0.82382223     0.10000
C368        C  0.08842134  0.12083921  0.80867488    -0.12200
H369        H  0.14449560  0.17734611  0.78796115     0.14000
H370        H  0.06533300  0.24434469  0.82371402     0.14000
H371        H  0.01661470  0.15400033  0.84017643     0.14000
H372        H  0.09562268  0.08703555  0.80436312     0.14000
C373        C  0.41110124  0.31683753  0.20792506    -0.12100
C374        C  0.39033601  0.27501732  0.19837746    -0.13700
C375        C  0.38654144  0.10985387  0.19738923    -0.12100
C376        C  0.40730273  0.08862245  0.20683404    -0.13700
C377        C  0.22289136  0.11169502  0.19747684    -0.12100
C378        C  0.18091253  0.09065906  0.20708533    -0.13700
C379        C  0.00738443  0.37977303  0.30848590    -0.12200
C380        C  0.04798265  0.41270951  0.29500972     0.10000
C381        C  0.10612235  0.44117806  0.29956432    -0.12200
C382        C  0.12345405  0.43657404  0.31725866    -0.12200
C383        C  0.08300730  0.40254434  0.33064251     0.10000
C384        C  0.02476416  0.37415489  0.32607122    -0.12200
H385        H  0.96215415  0.35841877  0.30540674     0.14000
H386        H  0.13811275  0.46819462  0.28958976     0.14000
H387        H  0.16874039  0.45803208  0.32024170     0.14000
H388        H  0.99273131  0.34700597  0.33601153     0.14000
C389        C  0.07136276  0.19701125  0.31567425    -0.12200
C390        C  0.10066104  0.18620363  0.32960593     0.10000
C391        C  0.12579861  0.15335432  0.32545842    -0.12200
C392        C  0.12026466  0.13038333  0.30786712    -0.12200
C393        C  0.09065625  0.14094452  0.29397952     0.10000
C394        C  0.06684207  0.17500185  0.29798041    -0.12200
H395        H  0.05298783  0.22362494  0.31833323     0.14000
H396        H  0.14966746  0.14542741  0.33581202     0.14000
H397        H  0.13829505  0.10347031  0.30518996     0.14000
H398        H  0.04271295  0.18268153  0.28765776     0.14000
C399        C  0.30693988  0.37444236  0.31623803    -0.12200
C400        C  0.31465027  0.41513774  0.32961741     0.10000
C401        C  0.34357152  0.47283864  0.32474691    -0.12200
C402        C  0.36501811  0.48954469  0.30694930    -0.12200
C403        C  0.35701114  0.44884075  0.29356871     0.10000
C404        C  0.32754390  0.39112885  0.29833132    -0.12200
H405        H  0.28350051  0.32950475  0.31945257     0.14000
H406        H  0.34918369  0.50501402  0.33465609     0.14000
H407        H  0.38861501  0.03446309  0.30368512     0.14000
H408        H  0.32224198  0.35908712  0.28841213     0.14000
C409        C  0.25230893  0.01297519  0.42071156    -0.12100
C410        C  0.27417872  0.05556522  0.42994749    -0.13700
C411        C  0.44106449  0.21729415  0.42936132    -0.12100
C412        C  0.48399015  0.23726178  0.42014007    -0.13700
C413        C  0.27920052  0.22437026  0.42963397    -0.12100
C414        C  0.25972898  0.24755800  0.42050458    -0.13700
Zn415      Zn  0.08821243  0.79306211  0.37129744     1.49700
Zn416      Zn  0.20693988  0.79661590  0.37149781     1.49400
Zn417      Zn  0.20350464  0.91138918  0.37148850     1.49100
Zn418      Zn  0.16545554  0.83312679  0.40753840     1.49500
O419        O  0.16603843  0.83360148  0.38071695    -1.82900
O420        O  0.08126066  0.73694263  0.35222250    -0.73600
O421        O  0.26450296  0.84570923  0.35259943    -0.73400
O422        O  0.15380401  0.92038360  0.35301915    -0.72900
O423        O  0.15848698  0.72946113  0.35569259    -0.73600
O424        O  0.06957997  0.84171656  0.35568944    -0.73200
O425        O  0.26992905  0.92938793  0.35533378    -0.73800
O426        O  0.20547993  0.91424768  0.41722129    -0.73200
O427        O  0.24047843  0.77309753  0.39196196    -0.73900
O428        O  0.22826625  0.96844009  0.39205389    -0.73300
O429        O  0.20686990  0.79340447  0.41716273    -0.73800
O430        O  0.08347279  0.79113893  0.41700840    -0.73700
O431        O  0.03014158  0.75829902  0.39166037    -0.73500
C432        C  0.11288794  0.71732427  0.34715967     0.78300
C433        C  0.28332358  0.89644278  0.34719370     0.78800
C434        C  0.10251461  0.88866823  0.34777948     0.77800
C435        C  0.22729216  0.96278063  0.40947656     0.78100
C436        C  0.23480736  0.77291863  0.40937218     0.79300
C437        C  0.03503727  0.76320928  0.40909933     0.78300
Zn438      Zn  0.99714663  0.99937497  0.26759011     1.49700
Zn439      Zn  0.03837932  0.57908225  0.23771810     1.49400
Zn440      Zn  0.03974247  0.96082959  0.23829049     1.49100
Zn441      Zn  0.41889518  0.95842371  0.23739718     1.49500
O442        O  0.99872658  0.99950318  0.24228931    -1.82900
O443        O  0.06976108  0.55875279  0.27757275    -0.73600
O444        O  0.10857914  0.59579199  0.22286607    -0.73400
O445        O  0.06202135  0.94197855  0.26333376    -0.72900
O446        O  0.05992826  0.62316068  0.26238238    -0.73600
O447        O  0.98358366  0.92670799  0.27744586    -0.73200
O448        O  0.10933403  0.51380919  0.22326541    -0.73800
O449        O  0.40417836  0.88905585  0.22277309    -0.73200
O450        O  0.48464722  0.59458723  0.22281819    -0.73900
O451        O  0.48728109  0.88979078  0.22389816    -0.73300
O452        O  0.40214019  0.51131388  0.22248315    -0.73800
O453        O  0.37433177  0.93516389  0.26199641    -0.73700
O454        O  0.43684610  0.01281913  0.27640871    -0.73500
C455        C  0.07493102  0.60743809  0.27687347     0.78300
C456        C  0.13056168  0.56557269  0.21832954     0.78800
C457        C  0.02956088  0.92545406  0.27750679     0.77800
C458        C  0.43532753  0.86762333  0.21877890     0.78100
C459        C  0.43254215  0.56361355  0.21795234     0.79300
C460        C  0.38925012  0.96721555  0.27619565     0.78300
C461        C  0.16311468  0.83196457  0.80212794     0.46600
H462        H  0.16267398  0.83185521  0.81742902    -0.02400
C463        C  0.16459281  0.83319573  0.76617690     0.46700
H464        H  0.16519445  0.83367841  0.75085167    -0.02400
C465        C  0.13277409  0.86172528  0.79345028    -0.16100
C466        C  0.22413230  0.86354864  0.79375757    -0.15800
C467        C  0.13414536  0.77186199  0.79334054    -0.16200
C468        C  0.13398165  0.86200649  0.77458015    -0.16200
C469        C  0.22393780  0.86338002  0.77484738    -0.15800
C470        C  0.13498969  0.77347514  0.77440640    -0.16100
C471        C  0.49784858  0.99939487  0.82597895     0.46600
H472        H  0.49716651  0.99944289  0.81068026    -0.02400
C473        C  0.49912663  0.99842090  0.86192151     0.46700
H474        H  0.49966135  0.99802423  0.87724478    -0.02400
C475        C  0.02723643  0.55953283  0.83474893    -0.16100
C476        C  0.43749702  0.96766275  0.83482333    -0.15800
C477        C  0.02897917  0.96984336  0.83420449    -0.16200
C478        C  0.02766009  0.55806221  0.85367084    -0.16200
C479        C  0.43919878  0.96782298  0.85371446    -0.15800
C480        C  0.02936843  0.96986498  0.85307627    -0.16100
C481        C  0.16509635  0.83341031  0.49240275     0.46600
H482        H  0.16493300  0.83334148  0.47710160    -0.02400
C483        C  0.16641722  0.83382166  0.52836422     0.46700
H484        H  0.16692476  0.83404386  0.54368482    -0.02400
C485        C  0.19627428  0.89379746  0.50092696    -0.16100
C486        C  0.10470024  0.80317812  0.50123904    -0.15800
C487        C  0.19560692  0.80345296  0.50082845    -0.16200
C488        C  0.19701512  0.89326518  0.51980754    -0.16200
C489        C  0.10622425  0.80464746  0.52016793    -0.15800
C490        C  0.19514056  0.80324352  0.51972509    -0.16100
C491        C  0.33062652  0.66578858  0.43249658     0.46600
H492        H  0.33049734  0.66541089  0.41717501    -0.02400
C493        C  0.33107643  0.66660456  0.46846074     0.46700
H494        H  0.33088464  0.66683388  0.48376187    -0.02400
C495        C  0.39061427  0.69537754  0.44085022    -0.16100
C496        C  0.30143181  0.69618048  0.44092001    -0.15800
C497        C  0.30012069  0.60644164  0.44111231    -0.16200
C498        C  0.39166456  0.69700389  0.45978156    -0.16200
C499        C  0.30062064  0.69631503  0.45981366    -0.15800
C500        C  0.30035378  0.60612170  0.45999263    -0.16100
Zn501      Zn  0.29526814  0.58824802  0.58951076     1.49700
Zn502      Zn  0.40816765  0.70918377  0.58967425     1.49400
Zn503      Zn  0.33152265  0.66632755  0.55340725     1.49100
Zn504      Zn  0.28667901  0.70053721  0.58922331     1.49500
O505        O  0.33033959  0.66601257  0.58025973    -1.82900
O506        O  0.34628430  0.58056261  0.60774873    -0.73600
O507        O  0.46662896  0.74279068  0.56942084    -0.73400
O508        O  0.29231662  0.58516445  0.54379412    -0.72900
O509        O  0.42726416  0.66320138  0.60639288    -0.73600
O510        O  0.27027784  0.53105560  0.56896218    -0.73200
O511        O  0.41367006  0.70891110  0.54405557    -0.73800
O512        O  0.25506393  0.72530082  0.56851434    -0.73200
O513        O  0.41477575  0.76728196  0.60774883    -0.73900
O514        O  0.28971109  0.70540564  0.54348728    -0.73300
O515        O  0.33254604  0.76618584  0.60593506    -0.73800
O516        O  0.22687995  0.64934846  0.60722008    -0.73700
O517        O  0.22946419  0.56928026  0.60608170    -0.73500
C518        C  0.39612020  0.61483686  0.61372434     0.78300
C519        C  0.46198601  0.73734950  0.55199753     0.78800
C520        C  0.27092244  0.53667143  0.55154159     0.77800
C521        C  0.26142956  0.72575643  0.55113063     0.78100
C522        C  0.38068702  0.78314805  0.61348382     0.79300
C523        C  0.21155303  0.59993327  0.61327298     0.78300
Zn524      Zn  0.45815235  0.91977454  0.72284485     1.49700
Zn525      Zn  0.99786067  0.49995493  0.69318735     1.49400
Zn526      Zn  0.45740102  0.53853131  0.72296023     1.49100
Zn527      Zn  0.07775151  0.53965446  0.72325192     1.49500
O528        O  0.99786143  0.49950683  0.71850186    -1.82900
O529        O  0.43651647  0.87686234  0.69805161    -0.73600
O530        O  0.51196369  0.57319635  0.68365468    -0.73400
O531        O  0.38820159  0.98510642  0.73804259    -0.72900
O532        O  0.42434982  0.94082784  0.68350775    -0.73600
O533        O  0.38820510  0.90271885  0.73777873    -0.73200
O534        O  0.43453432  0.55882774  0.69825010    -0.73800
O535        O  0.09370235  0.60959802  0.73788995    -0.73200
O536        O  0.05705245  0.48561866  0.68383814    -0.73900
O537        O  0.01071594  0.60919257  0.73742467    -0.73300
O538        O  0.12152559  0.56183212  0.69849571    -0.73800
O539        O  0.09395814  0.98621173  0.73817006    -0.73700
O540        O  0.01134780  0.90313843  0.73758570    -0.73500
C541        C  0.42038747  0.89262230  0.68383232     0.78300
C542        C  0.46672624  0.57580913  0.68401969     0.78800
C543        C  0.36670195  0.93305347  0.74267159     0.77800
C544        C  0.06295099  0.63123269  0.74222369     0.78100
C545        C  0.10547906  0.53020864  0.68417965     0.79300
C546        C  0.06336346  0.93381174  0.74256728     0.78300
C547        C  0.33426641  0.66777289  0.15877523     0.46600
H548        H  0.33474863  0.66847759  0.14347413    -0.02400
C549        C  0.33289038  0.66584408  0.19472618     0.46700
H550        H  0.33241571  0.66501928  0.21005036    -0.02400
C551        C  0.27327684  0.63854814  0.16719980    -0.16100
C552        C  0.36280130  0.63601374  0.16726829    -0.15800
C553        C  0.36501751  0.72763735  0.16770711    -0.16200
C554        C  0.27351185  0.63777632  0.18612076    -0.16200
C555        C  0.36168012  0.63545503  0.18613612    -0.15800
C556        C  0.36414986  0.72566910  0.18661938    -0.16100
C557        C  0.49999984  0.50018251  0.13502758     0.46600
H558        H  0.50088839  0.50051215  0.15032662    -0.02400
C559        C  0.49813965  0.49974576  0.09906185     0.46700
H560        H  0.49731408  0.49966263  0.08374314    -0.02400
C561        C  0.47066557  0.93977345  0.12649951    -0.16100
C562        C  0.46857369  0.52920850  0.12669814    -0.15800
C563        C  0.06018844  0.53111000  0.12607216    -0.16200
C564        C  0.46989599  0.94028049  0.10757001    -0.16200
C565        C  0.46775098  0.52845688  0.10784266    -0.15800
C566        C  0.05836617  0.53081231  0.10717789    -0.16100
Zn567      Zn  0.08530686  0.79303828  0.90452816     1.49700
Zn568      Zn  0.20446015  0.79265870  0.90507403     1.49400
Zn569      Zn  0.20549694  0.91241081  0.90503453     1.49100
Zn570      Zn  0.16467697  0.83271199  0.93457433     1.49500
O571        O  0.16502649  0.83284058  0.90929897    -1.82900
O572        O  0.06866541  0.72249383  0.89003014    -0.73600
O573        O  0.27468039  0.84561475  0.89043834    -0.73400
O574        O  0.15295225  0.92927198  0.88994142    -0.72900
O575        O  0.15144584  0.72256005  0.89045348    -0.73600
O576        O  0.06993896  0.84650419  0.88942509    -0.73200
O577        O  0.27567654  0.92852565  0.89057935    -0.73800
O578        O  0.14987439  0.89116703  0.94430237    -0.73200
O579        O  0.22603302  0.77140873  0.92976453    -0.73900
O580        O  0.22717055  0.95516872  0.92986539    -0.73300
O581        O  0.23818975  0.84759374  0.94430585    -0.73800
O582        O  0.10550459  0.75866479  0.94363695    -0.73700
O583        O  0.04170288  0.77196571  0.92927636    -0.73500
C584        C  0.09923811  0.70066093  0.88568276     0.78300
C585        C  0.29695200  0.89782473  0.88592297     0.78800
C586        C  0.10094737  0.89873155  0.88489843     0.77800
C587        C  0.19496499  0.93920666  0.94409347     0.78100
C588        C  0.24233383  0.80346407  0.94396399     0.79300
C589        C  0.05726036  0.75515904  0.94338538     0.78300
Zn590      Zn  0.37833307  0.74395275  0.03818554     1.49700
Zn591      Zn  0.33223220  0.66647533  0.07418534     1.49400
Zn592      Zn  0.25569617  0.63290268  0.03785469     1.49100
Zn593      Zn  0.36634855  0.62129080  0.03844906     1.49500
O594        O  0.33325017  0.66617651  0.04733793    -1.82900
O595        O  0.40803505  0.80144763  0.05867093    -0.73600
O596        O  0.25031516  0.62649250  0.08338691    -0.73400
O597        O  0.24888870  0.68466125  0.02002799    -0.72900
O598        O  0.37255107  0.74781731  0.08381845    -0.73600
O599        O  0.33396572  0.76308888  0.02062116    -0.73200
O600        O  0.19740153  0.60750515  0.05801756    -0.73800
O601        O  0.31369851  0.55980932  0.02121256    -0.73200
O602        O  0.37190028  0.62540774  0.08421786    -0.73900
O603        O  0.23649993  0.56830784  0.02099542    -0.73300
O604        O  0.39287395  0.59163614  0.05921370    -0.73800
O605        O  0.43017830  0.66583686  0.02095779    -0.73700
O606        O  0.43946750  0.75160098  0.02102440    -0.73500
C607        C  0.40064669  0.79623225  0.07603110     0.78300
C608        C  0.20209953  0.60656659  0.07541886     0.78800
C609        C  0.28453698  0.73337679  0.01372399     0.77800
C610        C  0.26534127  0.54718449  0.01459358     0.78100
C611        C  0.39289451  0.59772282  0.07659764     0.79300
C612        C  0.45128037  0.71554747  0.01435265     0.78300
C613        C  0.23464398  0.72863327  0.96520114    -0.12200
C614        C  0.25832578  0.78643761  0.96110910     0.10000
C615        C  0.28890297  0.82712627  0.97481549    -0.12200
C616        C  0.29612727  0.81019457  0.99227698    -0.12200
C617        C  0.27126202  0.75228753  0.99645897     0.10000
C618        C  0.24052539  0.71170019  0.98277954    -0.12200
H619        H  0.20979443  0.69644506  0.95502975     0.14000
H620        H  0.30679721  0.87201994  0.97205446     0.14000
H621        H  0.32099282  0.84218144  0.00249951     0.14000
H622        H  0.22232627  0.66675493  0.98552935     0.14000
C623        C  0.17192228  0.96552035  0.97443430    -0.12200
C624        C  0.21300183  0.97115726  0.96145160     0.10000
C625        C  0.27063471  0.99827708  0.96658347    -0.12200
C626        C  0.28686768  0.51902955  0.98446623    -0.12200
C627        C  0.24596770  0.51428813  0.99739135     0.10000
C628        C  0.18832537  0.48762736  0.99218470    -0.12200
H629        H  0.12701215  0.94356004  0.97087551     0.14000
H630        H  0.30282981  0.00158102  0.95698019     0.14000
H631        H  0.33182601  0.54077843  0.98795162     0.14000
H632        H  0.15615231  0.48445235  0.00177086     0.14000
C633        C  0.02866125  0.70249817  0.97305780    -0.12200
C634        C  0.02483594  0.74003509  0.96066734     0.10000
C635        C  0.00003478  0.77177039  0.96648195    -0.12200
C636        C  0.47986427  0.76654763  0.98447588    -0.12200
C637        C  0.48301503  0.72856698  0.99686628     0.10000
C638        C  0.50708776  0.69611877  0.99093214    -0.12200
H639        H  0.04893193  0.67859654  0.96894221     0.14000
H640        H  0.99828761  0.80225996  0.95733833     0.14000
H641        H  0.46010897  0.79099613  0.98850511     0.14000
H642        H  0.50896890  0.66571693  0.00007686     0.14000
C643        C  0.44451253  0.88965403  0.09623434    -0.12100
C644        C  0.42434597  0.84682421  0.08709778    -0.13700
C645        C  0.41804233  0.57287047  0.08787388    -0.12100
C646        C  0.44038884  0.55229500  0.09689808    -0.13700
C647        C  0.10840654  0.55871848  0.09559820    -0.12100
C648        C  0.15115068  0.58136719  0.08636278    -0.13700
C649        C  0.43531201  0.64042576  0.14464382    -0.12200
C650        C  0.38871496  0.60831711  0.15634140     0.10000
C651        C  0.36948681  0.55018663  0.15865647    -0.12200
C652        C  0.39632500  0.52471717  0.14942852    -0.12200
C653        C  0.44292836  0.55686667  0.13774516     0.10000
C654        C  0.46216068  0.61497577  0.13542187    -0.12200
H655        H  0.45205070  0.68540372  0.14302958     0.14000
H656        H  0.33353401  0.52448675  0.16760934     0.14000
H657        H  0.37945586  0.97963999  0.15095876     0.14000
H658        H  0.49802174  0.64062779  0.12642724     0.14000
C659        C  0.42837980  0.79020893  0.14221117    -0.12200
C660        C  0.39158727  0.78183524  0.15698652     0.10000
C661        C  0.38186879  0.82630031  0.16187991    -0.12200
C662        C  0.40927695  0.87820611  0.15246794    -0.12200
C663        C  0.44577861  0.88641391  0.13761654     0.10000
C664        C  0.45591753  0.84215716  0.13283973    -0.12200
H665        H  0.43662228  0.75703109  0.13804528     0.14000
H666        H  0.35257815  0.82079242  0.17291451     0.14000
H667        H  0.40083256  0.91135020  0.15656264     0.14000
H668        H  0.48517680  0.84764480  0.12179647     0.14000
C669        C  0.21124917  0.57530867  0.14171222    -0.12200
C670        C  0.21973457  0.61323659  0.15606201     0.10000
C671        C  0.17556189  0.62434771  0.16039541    -0.12200
C672        C  0.12342066  0.59682617  0.15094251    -0.12200
C673        C  0.11470086  0.55840296  0.13673468     0.10000
C674        C  0.15912187  0.54779816  0.13226016    -0.12200
H675        H  0.24432542  0.56567689  0.13818513     0.14000
H676        H  0.18135975  0.65433737  0.17115919     0.14000
H677        H  0.09022736  0.60624576  0.15451483     0.14000
H678        H  0.15326155  0.51766220  0.12153971     0.14000
C679        C  0.37433462  0.56634442  0.64413336    -0.12200
C680        C  0.41525278  0.60177941  0.63108050     0.10000
C681        C  0.47308572  0.63184756  0.63613763    -0.12200
C682        C  0.48971681  0.62565057  0.65377705    -0.12200
C683        C  0.44868412  0.59054115  0.66682940     0.10000
C684        C  0.39085260  0.56123480  0.66189757    -0.12200
H685        H  0.32926653  0.54381228  0.64079147     0.14000
H686        H  0.50536693  0.66029276  0.62647971     0.14000
H687        H  0.53474474  0.64781256  0.65718151     0.14000
H688        H  0.35860966  0.53272461  0.67155736     0.14000
C689        C  0.36481256  0.84399573  0.63577778    -0.12200
C690        C  0.39371717  0.81526098  0.63084987     0.10000
C691        C  0.42810935  0.80889101  0.64400660    -0.12200
C692        C  0.43329996  0.83051735  0.66176450    -0.12200
C693        C  0.40519504  0.85998435  0.66659646     0.10000
C694        C  0.37121125  0.86692998  0.65342930    -0.12200
H695        H  0.33719959  0.84853513  0.62601753     0.14000
H696        H  0.44973776  0.78563621  0.64075185     0.14000
H697        H  0.96099248  0.82601960  0.67150632     0.14000
H698        H  0.35005789  0.89059336  0.65676374     0.14000
C699        C  0.15239196  0.52358447  0.63590057    -0.12200
C700        C  0.17933404  0.58095309  0.63067981     0.10000
C701        C  0.18499334  0.62175172  0.64370917    -0.12200
C702        C  0.16478787  0.60559971  0.66166716    -0.12200
C703        C  0.13754824  0.54826381  0.66681061     0.10000
C704        C  0.13104207  0.50732135  0.65374044    -0.12200
H705        H  0.14839315  0.49142502  0.62624691     0.14000
H706        H  0.20686864  0.66649046  0.64021626     0.14000
H707        H  0.16861648  0.63766735  0.67133437     0.14000
H708        H  0.10879261  0.96260186  0.65728899     0.14000
C709        C  0.24579461  0.98647939  0.54030847    -0.12100
C710        C  0.22355078  0.94399278  0.53102855    -0.13700
C711        C  0.01313232  0.76327584  0.54101833    -0.12100
C712        C  0.05602136  0.78309307  0.53177924    -0.13700
C713        C  0.23684080  0.75129996  0.53989369    -0.12100
C714        C  0.21743906  0.77471753  0.53083204    -0.13700
C715        C  0.19026697  0.96049873  0.47830143    -0.12200
C716        C  0.22326478  0.94741907  0.48995446     0.10000
C717        C  0.28158791  0.98750358  0.49204556    -0.12200
C718        C  0.30634238  0.53948473  0.48263569    -0.12200
C719        C  0.27333541  0.55258368  0.47099735     0.10000
C720        C  0.21502467  0.51249558  0.46889028    -0.12200
H721        H  0.14505100  0.93142315  0.47689881     0.14000
H722        H  0.30803485  0.97838272  0.50092907     0.14000
H723        H  0.35157356  0.56857061  0.48403197     0.14000
H724        H  0.18860835  0.52160562  0.45998758     0.14000
C725        C  0.04389058  0.80238645  0.47493096    -0.12200
C726        C  0.05042348  0.77535948  0.49037312     0.10000
C727        C  0.00408772  0.72238996  0.49572341    -0.12200
C728        C  0.45210008  0.69815802  0.48625509    -0.12200
C729        C  0.44564463  0.72512236  0.47078226     0.10000
C730        C  0.49190298  0.77816814  0.46546797    -0.12200
H731        H  0.07855466  0.84266732  0.47029033     0.14000
H732        H  0.00809310  0.69926279  0.50718025     0.14000
H733        H  0.41744574  0.65781144  0.49086801     0.14000
H734        H  0.48790944  0.80124005  0.45399106     0.14000
C735        C  0.19242709  0.73728787  0.47611559    -0.12200
C736        C  0.22321451  0.77762660  0.48976266     0.10000
C737        C  0.27950189  0.79075570  0.49362552    -0.12200
C738        C  0.30409124  0.76324215  0.48428767    -0.12200
C739        C  0.27322220  0.72272318  0.47069410     0.10000
C740        C  0.21702595  0.70978299  0.46677225    -0.12200
H741        H  0.14892028  0.72610860  0.47300418     0.14000
H742        H  0.30442144  0.82228300  0.50395816     0.14000
H743        H  0.34757231  0.77437016  0.48741815     0.14000
H744        H  0.19208403  0.67820954  0.45645501     0.14000
C745        C  0.34761646  0.92287288  0.87496078    -0.12100
C746        C  0.38945770  0.94351087  0.86536146    -0.13700
C747        C  0.07640691  0.92405658  0.87360328    -0.12100
C748        C  0.05544530  0.94502652  0.86412492    -0.13700
C749        C  0.07419180  0.64974264  0.87484558    -0.12100
C750        C  0.05346464  0.60775488  0.86534467    -0.13700
C751        C  0.27460629  0.88740759  0.76355659    -0.12100
C752        C  0.31654798  0.90780825  0.75395874    -0.13700
C753        C  0.08823277  0.90839213  0.75368471    -0.12100
C754        C  0.10882837  0.88709506  0.76319133    -0.13700
C755        C  0.10896570  0.72390103  0.76267949    -0.12100
C756        C  0.08791772  0.68205094  0.75311226    -0.13700
C757        C  0.10060660  0.97370704  0.81138912    -0.12200
C758        C  0.05389283  0.94176221  0.82304706     0.10000
C759        C  0.03365850  0.88336112  0.82515820    -0.12200
C760        C  0.05989200  0.85746769  0.81582930    -0.12200
C761        C  0.10680766  0.88949250  0.80424744     0.10000
C762        C  0.12681985  0.94781740  0.80205699    -0.12200
H763        H  0.11796007  0.01889827  0.80992511     0.14000
H764        H  0.99762451  0.85788775  0.83411138     0.14000
H765        H  0.04272151  0.81230961  0.81735005     0.14000
H766        H  0.16300204  0.97335581  0.79316520     0.14000
C767        C  0.28711712  0.86018318  0.81852881    -0.12200
C768        C  0.27776885  0.89097642  0.80488358     0.10000
C769        C  0.32129558  0.94707490  0.80113870    -0.12200
C770        C  0.37350422  0.97142833  0.81055258    -0.12200
C771        C  0.38305052  0.94053069  0.82410168     0.10000
C772        C  0.33936058  0.88454347  0.82794560    -0.12200
H773        H  0.25454335  0.81680779  0.82156815     0.14000
H774        H  0.31491552  0.97207374  0.79084357     0.14000
H775        H  0.40613020  0.51474082  0.80745984     0.14000
H776        H  0.34582124  0.85945398  0.83818312     0.14000
C777        C  0.11610096  0.67261479  0.79919407    -0.12200
C778        C  0.10777959  0.71787439  0.80424547     0.10000
C779        C  0.07251247  0.71050433  0.81940083    -0.12200
C780        C  0.04487922  0.65870663  0.82890477    -0.12200
C781        C  0.05316811  0.61344028  0.82382502     0.10000
C782        C  0.08842025  0.62082590  0.80867729    -0.12200
H783        H  0.14449210  0.67733123  0.78796267     0.14000
H784        H  0.06534506  0.74433768  0.82371880     0.14000
H785        H  0.01661955  0.65399250  0.84017927     0.14000
H786        H  0.09561741  0.58701967  0.80436480     0.14000
C787        C  0.41111445  0.81686610  0.20792472    -0.12100
C788        C  0.39034095  0.77504088  0.19837952    -0.13700
C789        C  0.38654457  0.60986669  0.19740037    -0.12100
C790        C  0.40729447  0.58861722  0.20684271    -0.13700
C791        C  0.22289782  0.61167848  0.19748546    -0.12100
C792        C  0.18091404  0.59062446  0.20709193    -0.13700
C793        C  0.00742143  0.87981707  0.30848471    -0.12200
C794        C  0.04801489  0.91276545  0.29500914     0.10000
C795        C  0.10615479  0.94124524  0.29956389    -0.12200
C796        C  0.12349156  0.93663261  0.31725680    -0.12200
C797        C  0.08305037  0.90258390  0.33063922     0.10000
C798        C  0.02480635  0.87419139  0.32606851    -0.12200
H799        H  0.96219080  0.85845609  0.30540628     0.14000
H800        H  0.13814178  0.96827353  0.28959030     0.14000
H801        H  0.16877806  0.95809741  0.32023923     0.14000
H802        H  0.99277691  0.84703189  0.33600730     0.14000
C803        C  0.07140901  0.69704616  0.31566267    -0.12200
C804        C  0.10068683  0.68622485  0.32959797     0.10000
C805        C  0.12580545  0.65335517  0.32545522    -0.12200
C806        C  0.12026797  0.63037332  0.30786566    -0.12200
C807        C  0.09067280  0.64094103  0.29397514     0.10000
C808        C  0.06688355  0.67502399  0.29797054    -0.12200
H809        H  0.05305141  0.72367700  0.31831791     0.14000
H810        H  0.14965973  0.64541762  0.33581157     0.14000
H811        H  0.13828092  0.60344316  0.30519258     0.14000
H812        H  0.04276695  0.68271218  0.28764521     0.14000
C813        C  0.30699557  0.87444746  0.31623425    -0.12200
C814        C  0.31468616  0.91513645  0.32961336     0.10000
C815        C  0.34358511  0.97283737  0.32474253    -0.12200
C816        C  0.36502337  0.98954978  0.30694462    -0.12200
C817        C  0.35703303  0.94885229  0.29356426     0.10000
C818        C  0.32759324  0.89114043  0.29832726    -0.12200
H819        H  0.28357644  0.82951002  0.31944912     0.14000
H820        H  0.34918272  0.00500753  0.33465122     0.14000
H821        H  0.38862861  0.53445733  0.30369016     0.14000
H822        H  0.32230698  0.85910457  0.28840781     0.14000
C823        C  0.25228772  0.51297493  0.42071645    -0.12100
C824        C  0.27417626  0.55556763  0.42995083    -0.13700
C825        C  0.44109850  0.71728946  0.42936221    -0.12100
C826        C  0.48402368  0.73725832  0.42013966    -0.13700
C827        C  0.27923556  0.72437617  0.42963085    -0.12100
C828        C  0.25976370  0.74755698  0.42049808    -0.13700
Zn829      Zn  0.58818107  0.29303734  0.37130241     1.49700
Zn830      Zn  0.70691965  0.29662459  0.37150392     1.49400
Zn831      Zn  0.70345901  0.41138606  0.37149438     1.49100
Zn832      Zn  0.66541931  0.33312673  0.40754398     1.49500
O833        O  0.66600562  0.33359731  0.38072213    -1.82900
O834        O  0.58122436  0.23690172  0.35223417    -0.73600
O835        O  0.76449108  0.34572694  0.35260949    -0.73400
O836        O  0.65374533  0.42037531  0.35303065    -0.72900
O837        O  0.65848441  0.22947413  0.35569383    -0.73600
O838        O  0.56954518  0.34167156  0.35568821    -0.73200
O839        O  0.76986915  0.42938718  0.35533142    -0.73800
O840        O  0.70543978  0.41424649  0.41722726    -0.73200
O841        O  0.74044837  0.27310482  0.39196961    -0.73900
O842        O  0.72823382  0.46843777  0.39205958    -0.73300
O843        O  0.70683421  0.29340645  0.41717035    -0.73800
O844        O  0.58343719  0.29114076  0.41701165    -0.73700
O845        O  0.53011081  0.25829005  0.39166302    -0.73500
C846        C  0.61286717  0.21730619  0.34716715     0.78300
C847        C  0.78328802  0.39645095  0.34719778     0.78800
C848        C  0.60246678  0.38863797  0.34778467     0.77800
C849        C  0.72725868  0.46277922  0.40948221     0.78100
C850        C  0.73477391  0.27292278  0.40937970     0.79300
C851        C  0.53500412  0.26320808  0.40910157     0.78300
Zn852      Zn  0.49713388  0.49934537  0.26759366     1.49700
Zn853      Zn  0.53838851  0.07911748  0.23771788     1.49400
Zn854      Zn  0.53972703  0.46079301  0.23829319     1.49100
Zn855      Zn  0.91887771  0.45839459  0.23740080     1.49500
O856        O  0.49871231  0.49947056  0.24229258    -1.82900
O857        O  0.56977503  0.05878008  0.27756854    -0.73600
O858        O  0.60859048  0.09583453  0.22286551    -0.73400
O859        O  0.56199732  0.44192978  0.26333522    -0.72900
O860        O  0.55992339  0.12318600  0.26238490    -0.73600
O861        O  0.48356616  0.42667578  0.27744809    -0.73200
O862        O  0.60933981  0.01384841  0.22326089    -0.73800
O863        O  0.90416126  0.38902379  0.22277587    -0.73200
O864        O  0.98465554  0.09461464  0.22281565    -0.73900
O865        O  0.98726437  0.38975855  0.22390002    -0.73300
O866        O  0.90215586  0.01133357  0.22247879    -0.73800
O867        O  0.87431345  0.43513894  0.26200149    -0.73700
O868        O  0.93683533  0.51279069  0.27641358    -0.73500
C869        C  0.57492995  0.10745915  0.27687426     0.78300
C870        C  0.63056773  0.06561264  0.21832602     0.78800
C871        C  0.52953596  0.42540799  0.27750798     0.77800
C872        C  0.93531101  0.36759187  0.21878083     0.78100
C873        C  0.93255354  0.06363262  0.21794761     0.79300
C874        C  0.88923444  0.46719276  0.27620044     0.78300
C875        C  0.66310507  0.33197175  0.80212479     0.46600
H876        H  0.66266485  0.33186033  0.81742588    -0.02400
C877        C  0.66457929  0.33320566  0.76617382     0.46700
H878        H  0.66517884  0.33368904  0.75084858    -0.02400
C879        C  0.63275746  0.36172602  0.79344843    -0.16100
C880        C  0.72412237  0.36356101  0.79375383    -0.15800
C881        C  0.63413910  0.27187079  0.79333703    -0.16200
C882        C  0.63396313  0.36201026  0.77457837    -0.16200
C883        C  0.72392553  0.36339372  0.77484349    -0.15800
C884        C  0.63498414  0.27348457  0.77440292    -0.16100
C885        C  0.99783221  0.49938219  0.82598172     0.46600
H886        H  0.99715245  0.49943074  0.81068302    -0.02400
C887        C  0.99910814  0.49840756  0.86192426     0.46700
H888        H  0.99964173  0.49801110  0.87724753    -0.02400
C889        C  0.52724115  0.05954517  0.83474624    -0.16100
C890        C  0.93747933  0.46766152  0.83482558    -0.15800
C891        C  0.52894981  0.46981863  0.83420753    -0.16200
C892        C  0.52766710  0.05807486  0.85366811    -0.16200
C893        C  0.93918061  0.46782380  0.85371688    -0.15800
C894        C  0.52933772  0.46983796  0.85307922    -0.16100
C895        C  0.66507830  0.33340926  0.49240054     0.46600
H896        H  0.66491688  0.33334044  0.47709936    -0.02400
C897        C  0.66639549  0.33382037  0.52836215     0.46700
H898        H  0.66690157  0.33404183  0.54368274    -0.02400
C899        C  0.69625395  0.39379625  0.50092488    -0.16100
C900        C  0.60468108  0.30317372  0.50123604    -0.15800
C901        C  0.69558986  0.30345430  0.50082696    -0.16200
C902        C  0.69699324  0.39326466  0.51980551    -0.16200
C903        C  0.60620301  0.30464198  0.52016502    -0.15800
C904        C  0.69512147  0.30324450  0.51972348    -0.16100
C905        C  0.83059650  0.16578569  0.43249598     0.46600
H906        H  0.83046732  0.16541171  0.41717451    -0.02400
C907        C  0.83105059  0.16659571  0.46846009     0.46700
H908        H  0.83085978  0.16682264  0.48376118    -0.02400
C909        C  0.89058384  0.19538133  0.44084945    -0.16100
C910        C  0.80139482  0.19616806  0.44092097    -0.15800
C911        C  0.80010227  0.10643698  0.44111038    -0.16200
C912        C  0.89163806  0.19700493  0.45978061    -0.16200
C913        C  0.80058530  0.19629853  0.45981447    -0.15800
C914        C  0.80033645  0.10611441  0.45999076    -0.16100
Zn915      Zn  0.79524191  0.08824896  0.58951273     1.49700
Zn916      Zn  0.90814090  0.20917562  0.58967019     1.49400
Zn917      Zn  0.83149832  0.16632094  0.55340429     1.49100
Zn918      Zn  0.78664761  0.20052912  0.58921831     1.49500
O919        O  0.83031221  0.16600690  0.58025705    -1.82900
O920        O  0.84625028  0.08058163  0.60776080    -0.73600
O921        O  0.96660315  0.24277109  0.56941664    -0.73400
O922        O  0.79229587  0.08515811  0.54379476    -0.72900
O923        O  0.92724090  0.16320749  0.60639507    -0.73600
O924        O  0.77027013  0.03105599  0.56896461    -0.73200
O925        O  0.91364438  0.20889736  0.54405127    -0.73800
O926        O  0.75503497  0.22528776  0.56850874    -0.73200
O927        O  0.91474626  0.26728079  0.60774019    -0.73900
O928        O  0.78968883  0.20539887  0.54348212    -0.73300
O929        O  0.83251403  0.26618144  0.60592718    -0.73800
O930        O  0.72684789  0.14934924  0.60721643    -0.73700
O931        O  0.72942206  0.06927617  0.60607658    -0.73500
C932        C  0.89609001  0.11485598  0.61373380     0.78300
C933        C  0.96196061  0.23733078  0.55199332     0.78800
C934        C  0.77091194  0.03666834  0.55154376     0.77800
C935        C  0.76140438  0.22574668  0.55112532     0.78100
C936        C  0.88065633  0.28314550  0.61347512     0.79300
C937        C  0.71151437  0.09993154  0.61326818     0.78300
Zn938      Zn  0.95813425  0.41977535  0.72283707     1.49700
Zn939      Zn  0.49785637  0.99993938  0.69319150     1.49400
Zn940      Zn  0.95741645  0.03852975  0.72296549     1.49100
Zn941      Zn  0.57776808  0.03965126  0.72325265     1.49500
O942        O  0.49787614  0.99950560  0.71850612    -1.82900
O943        O  0.93649787  0.37687081  0.69804157    -0.73600
O944        O  0.01194794  0.07317047  0.68365069    -0.73400
O945        O  0.88818430  0.48510796  0.73803617    -0.72900
O946        O  0.92436323  0.44085222  0.68349414    -0.73600
O947        O  0.88818474  0.40271907  0.73777075    -0.73200
O948        O  0.93454825  0.05884014  0.69825744    -0.73800
O949        O  0.59372708  0.10960209  0.73788908    -0.73200
O950        O  0.55704337  0.98559785  0.68384059    -0.73900
O951        O  0.51073596  0.10918786  0.73742881    -0.73300
O952        O  0.62152390  0.06181838  0.69849349    -0.73800
O953        O  0.59393464  0.48621298  0.73817028    -0.73700
O954        O  0.51132805  0.40313660  0.73757944    -0.73500
C955        C  0.92038177  0.39263820  0.68382081     0.78300
C956        C  0.96672549  0.07581052  0.68402339     0.78800
C957        C  0.86668300  0.43305438  0.74266440     0.77800
C958        C  0.56297401  0.13123371  0.74222453     0.78100
C959        C  0.60546790  0.03019129  0.68417822     0.79300
C960        C  0.56334010  0.43381089  0.74256490     0.78300
C961        C  0.83426319  0.16776444  0.15876795     0.46600
H962        H  0.83474623  0.16847322  0.14346688    -0.02400
C963        C  0.83288259  0.16582469  0.19471876     0.46700
H964        H  0.83240634  0.16499459  0.21004288    -0.02400
C965        C  0.77327484  0.13854556  0.16719192    -0.16100
C966        C  0.86279181  0.13599933  0.16725924    -0.15800
C967        C  0.86501831  0.22762444  0.16770209    -0.16200
C968        C  0.77350611  0.13777025  0.18611267    -0.16200
C969        C  0.86166804  0.13543406  0.18612670    -0.15800
C970        C  0.86414913  0.22565132  0.18661452    -0.16100
C971        C  0.00000833  0.00019146  0.13502177     0.46600
H972        H  0.00089724  0.00052741  0.15032081    -0.02400
C973        C  0.99814680  0.99973792  0.09905590     0.46700
H974        H  0.99731930  0.99964806  0.08373726    -0.02400
C975        C  0.97066386  0.43976810  0.12650185    -0.16100
C976        C  0.96858512  0.02921599  0.12669024    -0.15800
C977        C  0.56019589  0.03111123  0.12606517    -0.16200
C978        C  0.96989364  0.44028561  0.10757263    -0.16200
C979        C  0.96776409  0.02845906  0.10783501    -0.15800
C980        C  0.55837490  0.03080386  0.10717090    -0.16100
Zn981      Zn  0.58530573  0.29302498  0.90453073     1.49700
Zn982      Zn  0.70447287  0.29266684  0.90507716     1.49400
Zn983      Zn  0.70547032  0.41240232  0.90504398     1.49100
Zn984      Zn  0.66465406  0.33267157  0.93457570     1.49500
O985        O  0.66502364  0.33283288  0.90930064    -1.82900
O986        O  0.56867574  0.22248503  0.89003465    -0.73600
O987        O  0.77467981  0.34563827  0.89044074    -0.73400
O988        O  0.65291944  0.42925646  0.88994968    -0.72900
O989        O  0.65146347  0.22256395  0.89045596    -0.73600
O990        O  0.56992081  0.34647623  0.88942660    -0.73200
O991        O  0.77566432  0.42854407  0.89059068    -0.73800
O992        O  0.64980262  0.39108865  0.94430940    -0.73200
O993        O  0.72607429  0.27143573  0.92976726    -0.73900
O994        O  0.72710643  0.45511852  0.92988236    -0.73300
O995        O  0.73817475  0.34759339  0.94431282    -0.73800
O996        O  0.60549619  0.25859572  0.94362412    -0.73700
O997        O  0.54171535  0.27196317  0.92928009    -0.73500
C998        C  0.59925432  0.20066033  0.88568562     0.78300
C999        C  0.79694464  0.39785062  0.88592959     0.78800
C1000       C  0.60091926  0.39870702  0.88490282     0.77800
C1001       C  0.69489219  0.43912955  0.94410866     0.78100
C1002       C  0.74236030  0.30348792  0.94396762     0.79300
C1003       C  0.55727094  0.25513295  0.94338359     0.78300
Zn1004     Zn  0.87839126  0.24398628  0.03818559     1.49700
Zn1005     Zn  0.83226305  0.16649194  0.07418327     1.49400
Zn1006     Zn  0.75574048  0.13295796  0.03785352     1.49100
Zn1007     Zn  0.86638377  0.12132177  0.03844463     1.49500
O1008       O  0.83329223  0.16621089  0.04733608    -1.82900
O1009       O  0.90807105  0.30146866  0.05867233    -0.73600
O1010       O  0.75034114  0.12649454  0.08338517    -0.73400
O1011       O  0.74893004  0.18474329  0.02003949    -0.72900
O1012       O  0.87257476  0.24783114  0.08381831    -0.73600
O1013       O  0.83404101  0.26313104  0.02061747    -0.73200
O1014       O  0.69743505  0.10751874  0.05801497    -0.73800
O1015       O  0.81374115  0.05986607  0.02120094    -0.73200
O1016       O  0.87193609  0.12542616  0.08421172    -0.73900
O1017       O  0.73656378  0.06840178  0.02097932    -0.73300
O1018       O  0.89289520  0.09164693  0.05920632    -0.73800
O1019       O  0.93022658  0.16586881  0.02095927    -0.73700
O1020       O  0.93954455  0.25164371  0.02103135    -0.73500
C1021       C  0.90067121  0.29624781  0.07603183     0.78300
C1022       C  0.70212626  0.10656661  0.07541618     0.78800
C1023       C  0.78459711  0.23344277  0.01372878     0.77800
C1024       C  0.76539896  0.04727260  0.01457665     0.78100
C1025       C  0.89292230  0.09773595  0.07659020     0.79300
C1026       C  0.95134945  0.21558612  0.01435843     0.78300
C1027       C  0.73469344  0.22867655  0.96520726    -0.12200
C1028       C  0.75837673  0.28647754  0.96111098     0.10000
C1029       C  0.78896620  0.32717575  0.97481379    -0.12200
C1030       C  0.79619725  0.31025492  0.99227656    -0.12200
C1031       C  0.77132302  0.25235009  0.99646320     0.10000
C1032       C  0.74057811  0.21175472  0.98278685    -0.12200
H1033       H  0.70983413  0.19648180  0.95503873     0.14000
H1034       H  0.80686094  0.37206687  0.97204918     0.14000
H1035       H  0.82107114  0.34224746  0.00249656     0.14000
H1036       H  0.72237486  0.16681066  0.98553999     0.14000
C1037       C  0.67184795  0.46540555  0.97445717    -0.12200
C1038       C  0.71292608  0.47104749  0.96147298     0.10000
C1039       C  0.77055753  0.49815182  0.96660552    -0.12200
C1040       C  0.78694221  0.01915886  0.98444413    -0.12200
C1041       C  0.74603661  0.01440330  0.99736947     0.10000
C1042       C  0.68839657  0.98774343  0.99216162    -0.12200
H1043       H  0.62693907  0.44345275  0.97089820     0.14000
H1044       H  0.80275090  0.50145468  0.95700137     0.14000
H1045       H  0.83189935  0.04091183  0.98793055     0.14000
H1046       H  0.65622059  0.98456249  0.00174741     0.14000
C1047       C  0.52867879  0.20248729  0.97305856    -0.12200
C1048       C  0.52488161  0.24004752  0.96067177     0.10000
C1049       C  0.50014101  0.27183221  0.96649313    -0.12200
C1050       C  0.97998763  0.26662297  0.98448879    -0.12200
C1051       C  0.98309611  0.22860809  0.99687443     0.10000
C1052       C  0.00712234  0.19612280  0.99093495    -0.12200
H1053       H  0.54890688  0.17854967  0.96893772     0.14000
H1054       H  0.49842142  0.30234276  0.95735239     0.14000
H1055       H  0.96027230  0.29110451  0.98852233     0.14000
H1056       H  0.00897330  0.16569673  0.00007614     0.14000
C1057       C  0.94451554  0.38966642  0.09623441    -0.12100
C1058       C  0.92435709  0.34683733  0.08709825    -0.13700
C1059       C  0.91806835  0.07288056  0.08786511    -0.12100
C1060       C  0.94041086  0.05230299  0.09688978    -0.13700
C1061       C  0.60841962  0.05870354  0.09559138    -0.12100
C1062       C  0.65117061  0.08135400  0.08635834    -0.13700
C1063       C  0.93537295  0.14044628  0.14465905    -0.12200
C1064       C  0.88871194  0.10831323  0.15633115     0.10000
C1065       C  0.86942211  0.05016188  0.15862173    -0.12200
C1066       C  0.89626017  0.02469305  0.14939305    -0.12200
C1067       C  0.94292924  0.05686633  0.13773592     0.10000
C1068       C  0.96222200  0.11499623  0.13543646    -0.12200
H1069       H  0.95215677  0.18544203  0.14306525     0.14000
H1070       H  0.83342317  0.02444671  0.16755649     0.14000
H1071       H  0.87956490  0.47967803  0.15101446     0.14000
H1072       H  0.99812929  0.14066193  0.12646036     0.14000
C1073       C  0.92834986  0.29018025  0.14219930    -0.12200
C1074       C  0.89158741  0.28182065  0.15698250     0.10000
C1075       C  0.88189461  0.32629618  0.16188383    -0.12200
C1076       C  0.90930575  0.37820296  0.15247398    -0.12200
C1077       C  0.94578005  0.38640198  0.13761558     0.10000
C1078       C  0.95589080  0.34213159  0.13282963    -0.12200
H1079       H  0.93656955  0.25698849  0.13802709     0.14000
H1080       H  0.85261888  0.32079554  0.17292256     0.14000
H1081       H  0.90088169  0.41135418  0.15657572     0.14000
H1082       H  0.98513442  0.34761301  0.12178197     0.14000
C1083       C  0.71124578  0.07529761  0.14170821    -0.12200
C1084       C  0.71973821  0.11324259  0.15605309     0.10000
C1085       C  0.67557716  0.12437472  0.16038123    -0.12200
C1086       C  0.62343649  0.09685358  0.15092831    -0.12200
C1087       C  0.61470760  0.05840888  0.13672666     0.10000
C1088       C  0.65911893  0.04778642  0.13225668    -0.12200
H1089       H  0.74431474  0.06565163  0.13818557     0.14000
H1090       H  0.68138258  0.15437748  0.17114180     0.14000
H1091       H  0.59024946  0.10628610  0.15449620     0.14000
H1092       H  0.65325102  0.01763603  0.12154019     0.14000
C1093       C  0.87430914  0.06642577  0.64415435    -0.12200
C1094       C  0.91522364  0.10181468  0.63109311     0.10000
C1095       C  0.97306467  0.13184614  0.63614138    -0.12200
C1096       C  0.98970804  0.12564423  0.65377851    -0.12200
C1097       C  0.94868095  0.09056784  0.66683777     0.10000
C1098       C  0.89084061  0.06131237  0.66191635    -0.12200
H1099       H  0.82923601  0.04392735  0.64081970     0.14000
H1100       H  0.00534428  0.16025878  0.62647738     0.14000
H1101       H  0.03474038  0.14777006  0.65717473     0.14000
H1102       H  0.85859895  0.03283162  0.67158178     0.14000
C1103       C  0.86479983  0.34401061  0.63576661    -0.12200
C1104       C  0.89368688  0.31525684  0.63084110     0.10000
C1105       C  0.92806188  0.30886849  0.64399987    -0.12200
C1106       C  0.93325780  0.33050081  0.66175699    -0.12200
C1107       C  0.90517642  0.35999266  0.66658612     0.10000
C1108       C  0.87120526  0.36695167  0.65341741    -0.12200
H1109       H  0.83719812  0.34856252  0.62600491     0.14000
H1110       H  0.94967402  0.28559601  0.64074731     0.14000
H1111       H  0.46093827  0.32599025  0.67149984     0.14000
H1112       H  0.85006874  0.39063169  0.65674982     0.14000
C1113       C  0.65232958  0.02357657  0.63589049    -0.12200
C1114       C  0.67929468  0.08095047  0.63067470     0.10000
C1115       C  0.68498089  0.12174716  0.64370890    -0.12200
C1116       C  0.66478173  0.10558788  0.66166719    -0.12200
C1117       C  0.63752138  0.04824684  0.66680611     0.10000
C1118       C  0.63098651  0.00730672  0.65373074    -0.12200
H1119       H  0.64831017  0.99141866  0.62623278     0.14000
H1120       H  0.70687440  0.16648927  0.64021971     0.14000
H1121       H  0.66863323  0.13765465  0.67133834     0.14000
H1122       H  0.60886340  0.46261887  0.65730244     0.14000
C1123       C  0.74579452  0.48648285  0.54030538    -0.12100
C1124       C  0.72353934  0.44399422  0.53102615    -0.13700
C1125       C  0.51310735  0.26325515  0.54101431    -0.12100
C1126       C  0.55599793  0.28307769  0.53177581    -0.13700
C1127       C  0.73681763  0.25129300  0.53988926    -0.12100
C1128       C  0.71741614  0.27471502  0.53083005    -0.13700
C1129       C  0.69025968  0.46051300  0.47830298    -0.12200
C1130       C  0.72325354  0.44741791  0.48995255     0.10000
C1131       C  0.78158165  0.48748952  0.49204176    -0.12200
C1132       C  0.80633974  0.03949425  0.48263741    -0.12200
C1133       C  0.77332858  0.05257647  0.47099511     0.10000
C1134       C  0.71502261  0.01247642  0.46888645    -0.12200
H1135       H  0.64504042  0.43144405  0.47690101     0.14000
H1136       H  0.80802529  0.47835619  0.50092302     0.14000
H1137       H  0.85156761  0.06858795  0.48403472     0.14000
H1138       H  0.68860232  0.02157452  0.45998149     0.14000
C1139       C  0.54387202  0.30238226  0.47492796    -0.12200
C1140       C  0.55040540  0.27535340  0.49036935     0.10000
C1141       C  0.50406874  0.22238345  0.49571945    -0.12200
C1142       C  0.95207866  0.19815598  0.48625251    -0.12200
C1143       C  0.94562163  0.22512140  0.47078039     0.10000
C1144       C  0.99188261  0.27816622  0.46546564    -0.12200
H1145       H  0.57853637  0.34266662  0.47028818     0.14000
H1146       H  0.50807466  0.19925494  0.50717575     0.14000
H1147       H  0.91742340  0.15781185  0.49086664     0.14000
H1148       H  0.98788865  0.30124037  0.45398980     0.14000
C1149       C  0.69240699  0.23729412  0.47611257    -0.12200
C1150       C  0.72319364  0.27762312  0.48976210     0.10000
C1151       C  0.77947329  0.29073452  0.49362878    -0.12200
C1152       C  0.80405568  0.26321288  0.48429222    -0.12200
C1153       C  0.77318803  0.22270502  0.47069577     0.10000
C1154       C  0.71699880  0.20978092  0.46677059    -0.12200
H1155       H  0.64890562  0.22612749  0.47299870     0.14000
H1156       H  0.80439340  0.32225590  0.50396289     0.14000
H1157       H  0.84753134  0.27432874  0.48742503     0.14000
H1158       H  0.69205669  0.17821411  0.45645143     0.14000
C1159       C  0.84760472  0.42290617  0.87496558    -0.12100
C1160       C  0.88944115  0.44353244  0.86536425    -0.13700
C1161       C  0.57637291  0.42402498  0.87360653    -0.12100
C1162       C  0.55540921  0.44499275  0.86412780    -0.13700
C1163       C  0.57421150  0.14974843  0.87484562    -0.12100
C1164       C  0.55347786  0.10776657  0.86534208    -0.13700
C1165       C  0.77459155  0.38741576  0.76355145    -0.12100
C1166       C  0.81653019  0.40781068  0.75395218    -0.13700
C1167       C  0.58820600  0.40839085  0.75368401    -0.12100
C1168       C  0.60880430  0.38709668  0.76319090    -0.13700
C1169       C  0.60897668  0.22391020  0.76267604    -0.12100
C1170       C  0.58794070  0.18205682  0.75311045    -0.13700
C1171       C  0.60060441  0.47370048  0.81140165    -0.12200
C1172       C  0.55386673  0.44174297  0.82304952     0.10000
C1173       C  0.53361036  0.38333427  0.82514968    -0.12200
C1174       C  0.55984515  0.35744500  0.81581877    -0.12200
C1175       C  0.60678517  0.38948335  0.80424705     0.10000
C1176       C  0.62681906  0.44781563  0.80206777    -0.12200
H1177       H  0.61797396  0.51889699  0.80994701     0.14000
H1178       H  0.49755889  0.35785270  0.83409571     0.14000
H1179       H  0.54265835  0.31228056  0.81733007     0.14000
H1180       H  0.66301896  0.47336310  0.79318343     0.14000
C1181       C  0.78709328  0.36019672  0.81853068    -0.12200
C1182       C  0.77775955  0.39098506  0.80487994     0.10000
C1183       C  0.82129756  0.44707646  0.80113201    -0.12200
C1184       C  0.87350237  0.47142668  0.81054814    -0.12200
C1185       C  0.88303373  0.44053403  0.82410297     0.10000
C1186       C  0.83933248  0.38455402  0.82794992    -0.12200
H1187       H  0.75451085  0.31682665  0.82157293     0.14000
H1188       H  0.81492893  0.47207319  0.79083310     0.14000
H1189       H  0.90612319  0.01474829  0.80746695     0.14000
H1190       H  0.84578149  0.35946720  0.83819126     0.14000
C1191       C  0.61610068  0.17262750  0.79919149    -0.12200
C1192       C  0.60777414  0.21788406  0.80424193     0.10000
C1193       C  0.57250324  0.21051212  0.81939659    -0.12200
C1194       C  0.54487389  0.15871544  0.82890138    -0.12200
C1195       C  0.55316753  0.11345174  0.82382214     0.10000
C1196       C  0.58842165  0.12083926  0.80867480    -0.12200
H1197       H  0.64449649  0.17734630  0.78796098     0.14000
H1198       H  0.56533274  0.24434437  0.82371395     0.14000
H1199       H  0.51661561  0.15400045  0.84017637     0.14000
H1200       H  0.59562253  0.08703548  0.80436305     0.14000
C1201       C  0.91110134  0.31683753  0.20792506    -0.12100
C1202       C  0.89033593  0.27501728  0.19837748    -0.13700
C1203       C  0.88654145  0.10985386  0.19738921    -0.12100
C1204       C  0.90730278  0.08862247  0.20683401    -0.13700
C1205       C  0.72289147  0.11169493  0.19747682    -0.12100
C1206       C  0.68091277  0.09065909  0.20708537    -0.13700
C1207       C  0.50738489  0.37977349  0.30848599    -0.12200
C1208       C  0.54798294  0.41270995  0.29500975     0.10000
C1209       C  0.60612244  0.44117810  0.29956428    -0.12200
C1210       C  0.62345408  0.43657407  0.31725865    -0.12200
C1211       C  0.58300750  0.40254446  0.33064257     0.10000
C1212       C  0.52476442  0.37415525  0.32607135    -0.12200
H1213       H  0.46215517  0.35842020  0.30540702     0.14000
H1214       H  0.63811275  0.46819439  0.28958970     0.14000
H1215       H  0.66874056  0.45803180  0.32024162     0.14000
H1216       H  0.49273123  0.34700660  0.33601162     0.14000
C1217       C  0.57136278  0.19701115  0.31567424    -0.12200
C1218       C  0.60066104  0.18620361  0.32960590     0.10000
C1219       C  0.62579837  0.15335452  0.32545839    -0.12200
C1220       C  0.62026444  0.13038365  0.30786707    -0.12200
C1221       C  0.59065605  0.14094471  0.29397946     0.10000
C1222       C  0.56684211  0.17500188  0.29798036    -0.12200
H1223       H  0.55298863  0.22362470  0.31833318     0.14000
H1224       H  0.64966677  0.14542725  0.33581193     0.14000
H1225       H  0.63829428  0.10347079  0.30519001     0.14000
H1226       H  0.54271271  0.18268166  0.28765775     0.14000
C1227       C  0.80693972  0.37444212  0.31623791    -0.12200
C1228       C  0.81465021  0.41513762  0.32961733     0.10000
C1229       C  0.84357141  0.47283851  0.32474685    -0.12200
C1230       C  0.86501798  0.48954459  0.30694926    -0.12200
C1231       C  0.85701103  0.44884060  0.29356864     0.10000
C1232       C  0.82754378  0.39112868  0.29833121    -0.12200
H1233       H  0.78350035  0.32950453  0.31945252     0.14000
H1234       H  0.84918359  0.50501388  0.33465606     0.14000
H1235       H  0.88861455  0.03446319  0.30368502     0.14000
H1236       H  0.82224168  0.35908668  0.28841183     0.14000
C1237       C  0.75230883  0.01297519  0.42071156    -0.12100
C1238       C  0.77417863  0.05556523  0.42994749    -0.13700
C1239       C  0.94106457  0.21729411  0.42936135    -0.12100
C1240       C  0.98399020  0.23726179  0.42014007    -0.13700
C1241       C  0.77920067  0.22437024  0.42963395    -0.12100
C1242       C  0.75972894  0.24755791  0.42050460    -0.13700
Zn1243     Zn  0.58821236  0.79306193  0.37129739     1.49700
Zn1244     Zn  0.70693996  0.79661584  0.37149779     1.49400
Zn1245     Zn  0.70350475  0.91138912  0.37148849     1.49100
Zn1246     Zn  0.66545546  0.83312675  0.40753839     1.49500
O1247       O  0.66603836  0.83360125  0.38071690    -1.82900
O1248       O  0.58126098  0.73694257  0.35222240    -0.73600
O1249       O  0.76450312  0.84570921  0.35259946    -0.73400
O1250       O  0.65380407  0.92038352  0.35301912    -0.72900
O1251       O  0.65848736  0.72946115  0.35569264    -0.73600
O1252       O  0.56958004  0.84171659  0.35568946    -0.73200
O1253       O  0.76992921  0.92938792  0.35533382    -0.73800
O1254       O  0.70547978  0.91424766  0.41722130    -0.73200
O1255       O  0.74047856  0.77309761  0.39196198    -0.73900
O1256       O  0.72826639  0.96844008  0.39205389    -0.73300
O1257       O  0.70686963  0.79340439  0.41716273    -0.73800
O1258       O  0.58347282  0.79113911  0.41700837    -0.73700
O1259       O  0.53014152  0.75829870  0.39166035    -0.73500
C1260       C  0.61288827  0.71732418  0.34715967     0.78300
C1261       C  0.78332372  0.89644277  0.34719373     0.78800
C1262       C  0.60251464  0.88866821  0.34777948     0.77800
C1263       C  0.72729224  0.96278062  0.40947656     0.78100
C1264       C  0.73480692  0.77291828  0.40937219     0.79300
C1265       C  0.53503727  0.76320904  0.40909931     0.78300
Zn1266     Zn  0.49714673  0.99937502  0.26759014     1.49700
Zn1267     Zn  0.53837934  0.57908226  0.23771805     1.49400
Zn1268     Zn  0.53974241  0.96082959  0.23829051     1.49100
Zn1269     Zn  0.91889510  0.95842359  0.23739719     1.49500
O1270       O  0.49872669  0.99950337  0.24228926    -1.82900
O1271       O  0.56976101  0.55875302  0.27757270    -0.73600
O1272       O  0.60857919  0.59579202  0.22286601    -0.73400
O1273       O  0.56202108  0.94197841  0.26333378    -0.72900
O1274       O  0.55992819  0.62316050  0.26238231    -0.73600
O1275       O  0.48358354  0.92670795  0.27744589    -0.73200
O1276       O  0.60933398  0.51380915  0.22326542    -0.73800
O1277       O  0.90417841  0.88905577  0.22277310    -0.73200
O1278       O  0.98464726  0.59458734  0.22281830    -0.73900
O1279       O  0.98728116  0.88979068  0.22389815    -0.73300
O1280       O  0.90214015  0.51131376  0.22248313    -0.73800
O1281       O  0.87433165  0.93516365  0.26199640    -0.73700
O1282       O  0.93684573  0.01281879  0.27640866    -0.73500
C1283       C  0.57493098  0.60743822  0.27687340     0.78300
C1284       C  0.63056169  0.56557268  0.21832954     0.78800
C1285       C  0.52956059  0.92545378  0.27750681     0.77800
C1286       C  0.93532761  0.86762327  0.21877889     0.78100
C1287       C  0.93254218  0.56361356  0.21795240     0.79300
C1288       C  0.88924987  0.96721524  0.27619564     0.78300
C1289       C  0.66311472  0.83196462  0.80212793     0.46600
H1290       H  0.66267402  0.83185532  0.81742900    -0.02400
C1291       C  0.66459286  0.83319573  0.76617691     0.46700
H1292       H  0.66519415  0.83367824  0.75085171    -0.02400
C1293       C  0.63277400  0.86172514  0.79345026    -0.16100
C1294       C  0.72413244  0.86354877  0.79375757    -0.15800
C1295       C  0.63414531  0.77186197  0.79334052    -0.16200
C1296       C  0.63398169  0.86200650  0.77458016    -0.16200
C1297       C  0.72393797  0.86338014  0.77484738    -0.15800
C1298       C  0.63498962  0.77347514  0.77440641    -0.16100
C1299       C  0.99784860  0.99939479  0.82597897     0.46600
H1300       H  0.99716671  0.99944270  0.81068027    -0.02400
C1301       C  0.99912657  0.99842099  0.86192156     0.46700
H1302       H  0.99966125  0.99802442  0.87724486    -0.02400
C1303       C  0.52723642  0.55953280  0.83474893    -0.16100
C1304       C  0.93749704  0.96766271  0.83482332    -0.15800
C1305       C  0.52897908  0.96984335  0.83420444    -0.16200
C1306       C  0.52766002  0.55806222  0.85367085    -0.16200
C1307       C  0.93919878  0.96782306  0.85371447    -0.15800
C1308       C  0.52936858  0.96986510  0.85307620    -0.16100
C1309       C  0.66509642  0.83341031  0.49240272     0.46600
H1310       H  0.66493322  0.83334150  0.47710157    -0.02400
C1311       C  0.66641730  0.83382170  0.52836421     0.46700
H1312       H  0.66692503  0.83404385  0.54368481    -0.02400
C1313       C  0.69627440  0.89379742  0.50092696    -0.16100
C1314       C  0.60470027  0.80317820  0.50123901    -0.15800
C1315       C  0.69560697  0.80345299  0.50082844    -0.16200
C1316       C  0.69701498  0.89326518  0.51980754    -0.16200
C1317       C  0.60622431  0.80464741  0.52016791    -0.15800
C1318       C  0.69514056  0.80324356  0.51972507    -0.16100
C1319       C  0.83062647  0.66578858  0.43249659     0.46600
H1320       H  0.83049707  0.66541088  0.41717501    -0.02400
C1321       C  0.83107649  0.66660460  0.46846075     0.46700
H1322       H  0.83088459  0.66683394  0.48376188    -0.02400
C1323       C  0.89061428  0.69537758  0.44085022    -0.16100
C1324       C  0.80143178  0.69618042  0.44091999    -0.15800
C1325       C  0.80012082  0.60644165  0.44111231    -0.16200
C1326       C  0.89166459  0.69700401  0.45978155    -0.16200
C1327       C  0.80062064  0.69631493  0.45981364    -0.15800
C1328       C  0.80035381  0.60612171  0.45999265    -0.16100
Zn1329     Zn  0.79526800  0.58824800  0.58951076     1.49700
Zn1330     Zn  0.90816761  0.70918374  0.58967424     1.49400
Zn1331     Zn  0.83152261  0.66632754  0.55340725     1.49100
Zn1332     Zn  0.78667898  0.70053724  0.58922332     1.49500
O1333       O  0.83033950  0.66601259  0.58025973    -1.82900
O1334       O  0.84628398  0.58056249  0.60774879    -0.73600
O1335       O  0.96662896  0.74279079  0.56942085    -0.73400
O1336       O  0.79231648  0.58516445  0.54379412    -0.72900
O1337       O  0.92726397  0.66320117  0.60639285    -0.73600
O1338       O  0.77027776  0.53105561  0.56896218    -0.73200
O1339       O  0.91366992  0.70891098  0.54405556    -0.73800
O1340       O  0.75506382  0.72530076  0.56851436    -0.73200
O1341       O  0.91477576  0.76728186  0.60774883    -0.73900
O1342       O  0.78971106  0.70540561  0.54348730    -0.73300
O1343       O  0.83254610  0.76618588  0.60593508    -0.73800
O1344       O  0.72687999  0.64934832  0.60722011    -0.73700
O1345       O  0.72946399  0.56928006  0.60608165    -0.73500
C1346       C  0.89612006  0.61483658  0.61372430     0.78300
C1347       C  0.96198591  0.73734964  0.55199753     0.78800
C1348       C  0.77092233  0.53667144  0.55154159     0.77800
C1349       C  0.76142949  0.72575638  0.55113065     0.78100
C1350       C  0.88068705  0.78314796  0.61348383     0.79300
C1351       C  0.71155299  0.59993312  0.61327300     0.78300
Zn1352     Zn  0.95815233  0.91977458  0.72284483     1.49700
Zn1353     Zn  0.49786080  0.49995493  0.69318735     1.49400
Zn1354     Zn  0.95740095  0.53853133  0.72296022     1.49100
Zn1355     Zn  0.57775159  0.53965449  0.72325193     1.49500
O1356       O  0.49786144  0.49950679  0.71850185    -1.82900
O1357       O  0.93651649  0.87686242  0.69805163    -0.73600
O1358       O  0.01196366  0.57319637  0.68365469    -0.73400
O1359       O  0.88820141  0.98510629  0.73804256    -0.72900
O1360       O  0.92434970  0.94082770  0.68350777    -0.73600
O1361       O  0.88820486  0.90271884  0.73777877    -0.73200
O1362       O  0.93453437  0.55882774  0.69825008    -0.73800
O1363       O  0.59370235  0.60959812  0.73788995    -0.73200
O1364       O  0.55705258  0.48561867  0.68383816    -0.73900
O1365       O  0.51071604  0.60919241  0.73742469    -0.73300
O1366       O  0.62152569  0.56183211  0.69849575    -0.73800
O1367       O  0.59395830  0.98621184  0.73817003    -0.73700
O1368       O  0.51134811  0.90313857  0.73758576    -0.73500
C1369       C  0.92038756  0.89262229  0.68383231     0.78300
C1370       C  0.96672627  0.57580918  0.68401967     0.78800
C1371       C  0.86670186  0.93305346  0.74267164     0.77800
C1372       C  0.56295100  0.63123264  0.74222375     0.78100
C1373       C  0.60547920  0.53020862  0.68417969     0.79300
C1374       C  0.56336371  0.93381186  0.74256727     0.78300
C1375       C  0.83426631  0.66777282  0.15877522     0.46600
H1376       H  0.83474809  0.66847749  0.14347412    -0.02400
C1377       C  0.83289034  0.66584404  0.19472618     0.46700
H1378       H  0.83241559  0.66501927  0.21005036    -0.02400
C1379       C  0.77327683  0.63854825  0.16719983    -0.16100
C1380       C  0.86280117  0.63601352  0.16726829    -0.15800
C1381       C  0.86501737  0.72763727  0.16770711    -0.16200
C1382       C  0.77351183  0.63777640  0.18612078    -0.16200
C1383       C  0.86168002  0.63545488  0.18613613    -0.15800
C1384       C  0.86414987  0.72566905  0.18661938    -0.16100
C1385       C  0.99999979  0.50018253  0.13502757     0.46600
H1386       H  0.00088820  0.50051218  0.15032660    -0.02400
C1387       C  0.99813976  0.49974581  0.09906188     0.46700
H1388       H  0.99731451  0.49966260  0.08374318    -0.02400
C1389       C  0.97066557  0.93977333  0.12649949    -0.16100
C1390       C  0.96857367  0.52920858  0.12669812    -0.15800
C1391       C  0.56018835  0.53111015  0.12607213    -0.16200
C1392       C  0.96989595  0.94028036  0.10757000    -0.16200
C1393       C  0.96775093  0.52845688  0.10784267    -0.15800
C1394       C  0.55836607  0.53081230  0.10717784    -0.16100
Zn1395     Zn  0.58530675  0.79303827  0.90452817     1.49700
Zn1396     Zn  0.70446006  0.79265869  0.90507404     1.49400
Zn1397     Zn  0.70549694  0.91241080  0.90503453     1.49100
Zn1398     Zn  0.66467698  0.83271203  0.93457432     1.49500
O1399       O  0.66502645  0.83284058  0.90929897    -1.82900
O1400       O  0.56866521  0.72249387  0.89003015    -0.73600
O1401       O  0.77468029  0.84561473  0.89043835    -0.73400
O1402       O  0.65295225  0.92927193  0.88994146    -0.72900
O1403       O  0.65144561  0.72256002  0.89045347    -0.73600
O1404       O  0.56993886  0.84650419  0.88942510    -0.73200
O1405       O  0.77567657  0.92852570  0.89057934    -0.73800
O1406       O  0.64987451  0.89116720  0.94430238    -0.73200
O1407       O  0.72603292  0.77140859  0.92976454    -0.73900
O1408       O  0.72717065  0.95516854  0.92986539    -0.73300
O1409       O  0.73818969  0.84759369  0.94430583    -0.73800
O1410       O  0.60550471  0.75866481  0.94363692    -0.73700
O1411       O  0.54170283  0.77196565  0.92927639    -0.73500
C1412       C  0.59923789  0.70066094  0.88568276     0.78300
C1413       C  0.79695195  0.89782471  0.88592296     0.78800
C1414       C  0.60094737  0.89873155  0.88489845     0.77800
C1415       C  0.69496516  0.93920676  0.94409347     0.78100
C1416       C  0.74233392  0.80346409  0.94396396     0.79300
C1417       C  0.55726047  0.75515906  0.94338539     0.78300
Zn1418     Zn  0.87833312  0.74395276  0.03818554     1.49700
Zn1419     Zn  0.83223227  0.66647531  0.07418533     1.49400
Zn1420     Zn  0.75569636  0.63290267  0.03785467     1.49100
Zn1421     Zn  0.86634875  0.62129084  0.03844908     1.49500
O1422       O  0.83325050  0.66617648  0.04733793    -1.82900
O1423       O  0.90803534  0.80144775  0.05867088    -0.73600
O1424       O  0.75031514  0.62649238  0.08338691    -0.73400
O1425       O  0.74888881  0.68466120  0.02002796    -0.72900
O1426       O  0.87255112  0.74781734  0.08381844    -0.73600
O1427       O  0.83396577  0.76308908  0.02062116    -0.73200
O1428       O  0.69740175  0.60750517  0.05801751    -0.73800
O1429       O  0.81369856  0.55980939  0.02121256    -0.73200
O1430       O  0.87190041  0.62540776  0.08421785    -0.73900
O1431       O  0.73649994  0.56830782  0.02099540    -0.73300
O1432       O  0.89287410  0.59163604  0.05921375    -0.73800
O1433       O  0.93017842  0.66583688  0.02095781    -0.73700
O1434       O  0.93946734  0.75160081  0.02102434    -0.73500
C1435       C  0.90064665  0.79623228  0.07603105     0.78300
C1436       C  0.70209962  0.60656657  0.07541883     0.78800
C1437       C  0.78453700  0.73337688  0.01372401     0.77800
C1438       C  0.76534131  0.54718450  0.01459357     0.78100
C1439       C  0.89289474  0.59772285  0.07659766     0.79300
C1440       C  0.95128042  0.71554745  0.01435267     0.78300
C1441       C  0.73464407  0.72863319  0.96520110    -0.12200
C1442       C  0.75832563  0.78643757  0.96110909     0.10000
C1443       C  0.78890294  0.82712622  0.97481548    -0.12200
C1444       C  0.79612714  0.81019452  0.99227699    -0.12200
C1445       C  0.77126207  0.75228745  0.99645895     0.10000
C1446       C  0.74052541  0.71170012  0.98277952    -0.12200
H1447       H  0.70979395  0.69644494  0.95502973     0.14000
H1448       H  0.80679707  0.87201997  0.97205444     0.14000
H1449       H  0.82099244  0.84218133  0.00249953     0.14000
H1450       H  0.72232658  0.66675473  0.98552934     0.14000
C1451       C  0.67192316  0.96552073  0.97443436    -0.12200
C1452       C  0.71300294  0.97115763  0.96145159     0.10000
C1453       C  0.77063559  0.99827749  0.96658345    -0.12200
C1454       C  0.78686777  0.51902951  0.98446618    -0.12200
C1455       C  0.74596802  0.51428818  0.99739129     0.10000
C1456       C  0.68832580  0.48762745  0.99218467    -0.12200
H1457       H  0.62701426  0.94356089  0.97087556     0.14000
H1458       H  0.80283149  0.00158207  0.95698000     0.14000
H1459       H  0.83182615  0.54077837  0.98795159     0.14000
H1460       H  0.65615331  0.48445233  0.00177079     0.14000
C1461       C  0.52866149  0.70249806  0.97305777    -0.12200
C1462       C  0.52483614  0.74003512  0.96066732     0.10000
C1463       C  0.50003503  0.77177062  0.96648195    -0.12200
C1464       C  0.97986398  0.76654737  0.98447590    -0.12200
C1465       C  0.98301499  0.72856705  0.99686634     0.10000
C1466       C  0.00708750  0.69611890  0.99093217    -0.12200
H1467       H  0.54893252  0.67859617  0.96894214     0.14000
H1468       H  0.49828846  0.80226107  0.95733831     0.14000
H1469       H  0.96010888  0.79099611  0.98850509     0.14000
H1470       H  0.00896917  0.66571725  0.00007689     0.14000
C1471       C  0.94451239  0.88965390  0.09623433    -0.12100
C1472       C  0.92434618  0.84682414  0.08709775    -0.13700
C1473       C  0.91804239  0.57287030  0.08787387    -0.12100
C1474       C  0.94038888  0.55229496  0.09689811    -0.13700
C1475       C  0.60840655  0.55871858  0.09559815    -0.12100
C1476       C  0.65115089  0.58136724  0.08636281    -0.13700
C1477       C  0.93531198  0.64042583  0.14464381    -0.12200
C1478       C  0.88871509  0.60831711  0.15634138     0.10000
C1479       C  0.86948708  0.55018658  0.15865642    -0.12200
C1480       C  0.89632537  0.52471729  0.14942845    -0.12200
C1481       C  0.94292859  0.55686684  0.13774514     0.10000
C1482       C  0.96216078  0.61497596  0.13542183    -0.12200
H1483       H  0.95205019  0.68540379  0.14302956     0.14000
H1484       H  0.83353495  0.52448685  0.16760933     0.14000
H1485       H  0.87945593  0.97963996  0.15095888     0.14000
H1486       H  0.99802183  0.64062793  0.12642719     0.14000
C1487       C  0.92837994  0.79020894  0.14221120    -0.12200
C1488       C  0.89158722  0.78183512  0.15698657     0.10000
C1489       C  0.88186861  0.82629992  0.16187991    -0.12200
C1490       C  0.90927685  0.87820568  0.15246793    -0.12200
C1491       C  0.94577863  0.88641368  0.13761650     0.10000
C1492       C  0.95591766  0.84215720  0.13283975    -0.12200
H1493       H  0.93662262  0.75703135  0.13804534     0.14000
H1494       H  0.85257730  0.82079201  0.17291450     0.14000
H1495       H  0.90083215  0.91134911  0.15656243     0.14000
H1496       H  0.98517708  0.84764499  0.12179654     0.14000
C1497       C  0.71124889  0.57530917  0.14171234    -0.12200
C1498       C  0.71973438  0.61323702  0.15606213     0.10000
C1499       C  0.67556172  0.62434798  0.16039551    -0.12200
C1500       C  0.62342054  0.59682624  0.15094255    -0.12200
C1501       C  0.61470072  0.55840318  0.13673470     0.10000
C1502       C  0.65912162  0.54779855  0.13226024    -0.12200
H1503       H  0.74432444  0.56567735  0.13818525     0.14000
H1504       H  0.68135909  0.65433757  0.17115930     0.14000
H1505       H  0.59022726  0.60624562  0.15451484     0.14000
H1506       H  0.65326213  0.51766355  0.12153976     0.14000
C1507       C  0.87433450  0.56634436  0.64413338    -0.12200
C1508       C  0.91525249  0.60177924  0.63108052     0.10000
C1509       C  0.97308530  0.63184738  0.63613767    -0.12200
C1510       C  0.98971653  0.62565048  0.65377706    -0.12200
C1511       C  0.94868409  0.59054111  0.66682937     0.10000
C1512       C  0.89085266  0.56123485  0.66189758    -0.12200
H1513       H  0.82926632  0.54381217  0.64079155     0.14000
H1514       H  0.00536650  0.66029209  0.62647978     0.14000
H1515       H  0.03474417  0.64781263  0.65718147     0.14000
H1516       H  0.85861024  0.53272457  0.67155729     0.14000
C1517       C  0.86481276  0.84399573  0.63577771    -0.12200
C1518       C  0.89371702  0.81526075  0.63084989     0.10000
C1519       C  0.92810929  0.80889087  0.64400669    -0.12200
C1520       C  0.93329992  0.83051714  0.66176460    -0.12200
C1521       C  0.90519528  0.85998420  0.66659647     0.10000
C1522       C  0.87121151  0.86692982  0.65342927    -0.12200
H1523       H  0.83719991  0.84853560  0.62601749     0.14000
H1524       H  0.94973698  0.78563551  0.64075213     0.14000
H1525       H  0.46099265  0.82601990  0.67150622     0.14000
H1526       H  0.85005878  0.89059318  0.65676363     0.14000
C1527       C  0.65239180  0.52358463  0.63590066    -0.12200
C1528       C  0.67933397  0.58095320  0.63067984     0.10000
C1529       C  0.68499326  0.62175180  0.64370916    -0.12200
C1530       C  0.66478791  0.60559977  0.66166717    -0.12200
C1531       C  0.63754827  0.54826390  0.66681065     0.10000
C1532       C  0.63104216  0.50732156  0.65374054    -0.12200
H1533       H  0.64839291  0.49142528  0.62624717     0.14000
H1534       H  0.70686844  0.66649052  0.64021622     0.14000
H1535       H  0.66861641  0.63766736  0.67133438     0.14000
H1536       H  0.60879266  0.96260044  0.65728901     0.14000
C1537       C  0.74579446  0.98647938  0.54030847    -0.12100
C1538       C  0.72355077  0.94399278  0.53102855    -0.13700
C1539       C  0.51313228  0.76327590  0.54101827    -0.12100
C1540       C  0.55602139  0.78309286  0.53177922    -0.13700
C1541       C  0.73684082  0.75130001  0.53989367    -0.12100
C1542       C  0.71743905  0.77471760  0.53083203    -0.13700
C1543       C  0.69026709  0.96049853  0.47830148    -0.12200
C1544       C  0.72326470  0.94741897  0.48995451     0.10000
C1545       C  0.78158773  0.98750340  0.49204557    -0.12200
C1546       C  0.80634251  0.53948462  0.48263574    -0.12200
C1547       C  0.77333508  0.55258357  0.47099735     0.10000
C1548       C  0.71502413  0.51249546  0.46889024    -0.12200
H1549       H  0.64505081  0.93142304  0.47689896     0.14000
H1550       H  0.80803482  0.97838288  0.50092905     0.14000
H1551       H  0.85157357  0.56857083  0.48403191     0.14000
H1552       H  0.68860755  0.52160635  0.45998756     0.14000
C1553       C  0.54389057  0.80238629  0.47493093    -0.12200
C1554       C  0.55042351  0.77535944  0.49037310     0.10000
C1555       C  0.50408769  0.72238971  0.49572347    -0.12200
C1556       C  0.95210018  0.69815835  0.48625501    -0.12200
C1557       C  0.94564472  0.72512279  0.47078217     0.10000
C1558       C  0.99190303  0.77816846  0.46546793    -0.12200
H1559       H  0.57855487  0.84266748  0.47029009     0.14000
H1560       H  0.50809367  0.69926252  0.50718030     0.14000
H1561       H  0.91744657  0.65781179  0.49086778     0.14000
H1562       H  0.98790979  0.80124107  0.45399096     0.14000
C1563       C  0.69242748  0.73728797  0.47611562    -0.12200
C1564       C  0.72321491  0.77762679  0.48976266     0.10000
C1565       C  0.77950213  0.79075564  0.49362547    -0.12200
C1566       C  0.80409133  0.76324195  0.48428757    -0.12200
C1567       C  0.77322225  0.72272300  0.47069404     0.10000
C1568       C  0.71702624  0.70978296  0.46677224    -0.12200
H1569       H  0.64892147  0.72610877  0.47300427     0.14000
H1570       H  0.80442205  0.82228303  0.50395786     0.14000
H1571       H  0.84757221  0.77436992  0.48741804     0.14000
H1572       H  0.69208391  0.67820956  0.45645502     0.14000
C1573       C  0.84761638  0.92287285  0.87496077    -0.12100
C1574       C  0.88945770  0.94351094  0.86536147    -0.13700
C1575       C  0.57640702  0.92405660  0.87360325    -0.12100
C1576       C  0.55544527  0.94502654  0.86412493    -0.13700
C1577       C  0.57419172  0.64974265  0.87484558    -0.12100
C1578       C  0.55346455  0.60775489  0.86534467    -0.13700
C1579       C  0.77460638  0.88740765  0.76355657    -0.12100
C1580       C  0.81654795  0.90780813  0.75395871    -0.13700
C1581       C  0.58823269  0.90839201  0.75368469    -0.12100
C1582       C  0.60882850  0.88709518  0.76319132    -0.13700
C1583       C  0.60896577  0.72390105  0.76267950    -0.12100
C1584       C  0.58791781  0.68205096  0.75311228    -0.13700
C1585       C  0.60060658  0.97370710  0.81138908    -0.12200
C1586       C  0.55389287  0.94176235  0.82304704     0.10000
C1587       C  0.53365860  0.88336125  0.82515817    -0.12200
C1588       C  0.55989223  0.85746779  0.81582926    -0.12200
C1589       C  0.60680769  0.88949248  0.80424738     0.10000
C1590       C  0.62681995  0.94781743  0.80205694    -0.12200
H1591       H  0.61796001  0.01889831  0.80992507     0.14000
H1592       H  0.49762498  0.85788802  0.83411142     0.14000
H1593       H  0.54272189  0.81230967  0.81735000     0.14000
H1594       H  0.66300209  0.97335578  0.79316516     0.14000
C1595       C  0.78711713  0.86018321  0.81852888    -0.12200
C1596       C  0.77776891  0.89097644  0.80488361     0.10000
C1597       C  0.82129576  0.94707497  0.80113868    -0.12200
C1598       C  0.87350438  0.97142835  0.81055260    -0.12200
C1599       C  0.88305058  0.94053070  0.82410168     0.10000
C1600       C  0.83936056  0.88454352  0.82794567    -0.12200
H1601       H  0.75454302  0.81680793  0.82156844     0.14000
H1602       H  0.81491580  0.97207364  0.79084348     0.14000
H1603       H  0.90612970  0.51474093  0.80745963     0.14000
H1604       H  0.84582128  0.85945417  0.83818320     0.14000
C1605       C  0.61610126  0.67261438  0.79919394    -0.12200
C1606       C  0.60778009  0.71787414  0.80424538     0.10000
C1607       C  0.57251268  0.71050407  0.81940072    -0.12200
C1608       C  0.54487947  0.65870650  0.82890470    -0.12200
C1609       C  0.55316810  0.61344005  0.82382496     0.10000
C1610       C  0.58842052  0.62082550  0.80867723    -0.12200
H1611       H  0.64449314  0.67733119  0.78796247     0.14000
H1612       H  0.56534584  0.74433723  0.82371869     0.14000
H1613       H  0.51661957  0.65399263  0.84017922     0.14000
H1614       H  0.59561703  0.58701854  0.80436476     0.14000
C1615       C  0.91111465  0.81686607  0.20792471    -0.12100
C1616       C  0.89034089  0.77504084  0.19837952    -0.13700
C1617       C  0.88654453  0.60986659  0.19740041    -0.12100
C1618       C  0.90729452  0.58861720  0.20684275    -0.13700
C1619       C  0.72289774  0.61167844  0.19748548    -0.12100
C1620       C  0.68091393  0.59062446  0.20709194    -0.13700
C1621       C  0.50742069  0.87981662  0.30848487    -0.12200
C1622       C  0.54801450  0.91276516  0.29500922     0.10000
C1623       C  0.60615448  0.94124488  0.29956391    -0.12200
C1624       C  0.62349132  0.93663237  0.31725680    -0.12200
C1625       C  0.58304985  0.90258361  0.33063933     0.10000
C1626       C  0.52480555  0.87419095  0.32606869    -0.12200
H1627       H  0.46219006  0.85845556  0.30540617     0.14000
H1628       H  0.63814138  0.96827244  0.28959003     0.14000
H1629       H  0.66877805  0.95809750  0.32023934     0.14000
H1630       H  0.49277541  0.84703105  0.33600785     0.14000
C1631       C  0.57140917  0.69704625  0.31566262    -0.12200
C1632       C  0.60068691  0.68622478  0.32959793     0.10000
C1633       C  0.62580551  0.65335563  0.32545510    -0.12200
C1634       C  0.62026762  0.63037373  0.30786548    -0.12200
C1635       C  0.59067255  0.64094145  0.29397500     0.10000
C1636       C  0.56688331  0.67502398  0.29797043    -0.12200
H1637       H  0.55305205  0.72367686  0.31831786     0.14000
H1638       H  0.64965925  0.64541754  0.33581130     0.14000
H1639       H  0.63828063  0.60344458  0.30519230     0.14000
H1640       H  0.54276618  0.68271193  0.28764518     0.14000
C1641       C  0.80699541  0.87444732  0.31623425    -0.12200
C1642       C  0.81468637  0.91513655  0.32961340     0.10000
C1643       C  0.84358524  0.97283761  0.32474253    -0.12200
C1644       C  0.86502344  0.98954995  0.30694461    -0.12200
C1645       C  0.85703286  0.94885219  0.29356426     0.10000
C1646       C  0.82759302  0.89114024  0.29832726    -0.12200
H1647       H  0.78357618  0.82950981  0.31944912     0.14000
H1648       H  0.84918395  0.00500825  0.33465131     0.14000
H1649       H  0.88862855  0.53445727  0.30369014     0.14000
H1650       H  0.82230670  0.85910437  0.28840785     0.14000
C1651       C  0.75228777  0.51297493  0.42071646    -0.12100
C1652       C  0.77417621  0.55556764  0.42995083    -0.13700
C1653       C  0.94109859  0.71728956  0.42936222    -0.12100
C1654       C  0.98402376  0.73725842  0.42013968    -0.13700
C1655       C  0.77923539  0.72437595  0.42963081    -0.12100
C1656       C  0.75976363  0.74755693  0.42049808    -0.13700
loop_ 
_geom_bond_atom_site_label_1 
_geom_bond_atom_site_label_2 
_geom_bond_distance 
_geom_bond_site_symmetry_2 
_ccdc_geom_bond_type 
Zn1           O5   1.948       .  S
Zn1           O6   1.999       .  S
Zn1          O10   1.994       .  S
Zn1          O17   2.012       .  S
Zn2           O5   1.952       .  S
Zn2           O7   1.999       .  S
Zn2           O9   1.992       .  S
Zn2          O13   2.010       .  S
Zn3           O5   1.950       .  S
Zn3           O8   2.003       .  S
Zn3          O11   1.990       .  S
Zn3          O14   2.010       .  S
Zn4           O5   1.947       .  S
Zn4          O12   2.034       .  S
Zn4          O15   2.036       .  S
Zn4          O16   2.038       .  S
O6           C18   1.271       .  A
O7           C19   1.271       .  A
O8           C20   1.271       .  A
O9           C18   1.270       .  A
O10          C20   1.270       .  A
O11          C19   1.270       .  A
O12          C21   1.275       .  A
O13          C22   1.272       .  A
O14          C21   1.273       .  A
O15          C22   1.276       .  A
O16          C23   1.276       .  A
O17          C23   1.273       .  A
C18         C390   1.473       .  S
C19         C400   1.473       .  S
C20         C383   1.475       .  S
C21         C823   1.435       .  S
C22         C414   1.436       .  S
C23        C1240   1.437   1_455  S
Zn24         O28   1.837       .  S
Zn24         O33   1.958       .  S
Zn24        O443   1.953   1_655  S
Zn24        O868   1.952       .  S
Zn25        O442   1.903   1_445  S
Zn25         O30   2.027       .  S
Zn25         O32   2.069       .  S
Zn25        O864   2.024   1_455  S
Zn26         O28   1.899   1_455  S
Zn26         O31   2.062       .  S
Zn26        O448   2.021       .  S
Zn26        O865   2.022   1_455  S
Zn27        O856   1.904       .  S
Zn27         O35   2.023       .  S
Zn27         O39   2.067       .  S
Zn27        O452   2.030       .  S
O28        Zn439   1.903   1_655  S
O28        Zn855   1.904       .  S
O29        Zn438   1.953   1_445  S
O29          C41   1.262       .  A
O30          C42   1.278       .  A
O31          C43   1.278       .  A
O32          C41   1.278       .  A
O33          C43   1.264   1_655  A
O34        Zn440   2.021   1_545  S
O34          C42   1.277       .  A
O35          C44   1.278       .  A
O36        Zn853   2.024       .  S
O36          C45   1.278       .  A
O37        Zn854   2.022       .  S
O37          C44   1.277       .  A
O38        Zn441   2.030   1_545  S
O38          C45   1.278       .  A
O39          C46   1.278       .  A
O40        Zn852   1.952       .  S
O40          C46   1.262       .  A
C41         C393   1.471       .  S
C42         C378   1.432       .  S
C43         C380   1.470       .  S
C44         C373   1.431       .  S
C45         C376   1.434       .  S
C46         C403   1.469       .  S
C47          H48   1.111       .  S
C47          C53   1.552       .  S
C47          C52   1.552       .  S
C47          C51   1.551       .  S
C49          H50   1.113       .  S
C49          C55   1.527       .  S
C49          C54   1.526       .  S
C49          C56   1.527       .  S
C51          C54   1.370       .  D
C51         C347   1.488       .  S
C52          C55   1.373       .  D
C52         C354   1.495       .  S
C53          C56   1.375       .  D
C53         C364   1.497       .  S
C54         C340   1.445       .  S
C55         C337   1.441       .  S
C56         C341   1.444       .  S
C57          H58   1.111       .  S
C57          C62   1.552       .  S
C57         C891   1.550       .  S
C57        C1303   1.552       .  S
C59          H60   1.113       .  S
C59          C65   1.526       .  S
C59        C1306   1.527       .  S
C59         C894   1.526       .  S
C61        C1299   1.552   1_445  S
C61          C64   1.374       .  D
C61         C367   1.497       .  S
C62          C65   1.372       .  D
C62         C357   1.495       .  S
C63         C885   1.550   1_455  S
C63          C66   1.370       .  D
C63         C344   1.488       .  S
C64        C1301   1.527   1_445  S
C64         C336   1.444       .  S
C65         C332   1.438       .  S
C66         C887   1.526   1_455  S
C66         C334   1.444       .  S
C67          H68   1.111       .  S
C67          C73   1.551       .  S
C67          C72   1.552       .  S
C67          C71   1.550       .  S
C69          H70   1.112       .  S
C69          C75   1.531       .  S
C69          C74   1.531       .  S
C69          C76   1.530       .  S
C71          C74   1.371       .  D
C71         C302   1.492       .  S
C72          C75   1.375       .  D
C72         C312   1.497       .  S
C73          C76   1.372       .  D
C73         C322   1.492       .  S
C74         C296   1.445       .  S
C75         C298   1.448       .  S
C76         C300   1.448       .  S
C77          H78   1.112       .  S
C77          C83   1.530       .  S
C77          C82   1.530       .  S
C77          C81   1.531       .  S
C79          H80   1.111       .  S
C79          C85   1.551       .  S
C79          C84   1.551       .  S
C79          C86   1.550       .  S
C81          C84   1.375       .  D
C81         C411   1.448       .  S
C82          C85   1.372       .  D
C82         C413   1.447       .  S
C83          C86   1.371       .  D
C83         C410   1.446       .  S
C84         C315   1.497       .  S
C85         C325   1.492       .  S
C86         C305   1.492       .  S
Zn87         O91   1.953       .  S
Zn87         O92   2.002       .  S
Zn87         O96   2.012       .  S
Zn87        O103   1.989       .  S
Zn88         O91   1.951       .  S
Zn88         O93   2.010       .  S
Zn88         O95   1.992       .  S
Zn88         O99   1.992       .  S
Zn89         O91   1.949       .  S
Zn89         O94   2.034       .  S
Zn89         O97   2.039       .  S
Zn89        O100   2.039       .  S
Zn90         O91   1.955       .  S
Zn90         O98   2.010       .  S
Zn90        O101   1.994       .  S
Zn90        O102   1.999       .  S
O92         C104   1.271       .  A
O93         C105   1.272       .  A
O94         C106   1.275       .  A
O95         C104   1.269       .  A
O96         C106   1.273       .  A
O97         C105   1.276       .  A
O98         C107   1.272       .  A
O99         C108   1.270       .  A
O100        C107   1.276       .  A
O101        C108   1.269       .  A
O102        C109   1.271       .  A
O103        C109   1.269       .  A
C104        C266   1.474       .  S
C105       C1125   1.437       .  S
C106        C709   1.435   1_545  S
C107        C299   1.437       .  S
C108        C276   1.472       .  S
C109        C286   1.472       .  S
Zn110      O1356   1.903       .  S
Zn110       O115   2.064       .  S
Zn110       O119   2.022       .  S
Zn110       O954   2.024       .  S
Zn111       O114   1.838       .  S
Zn111       O122   1.952   1_655  S
Zn111       O944   1.960   1_665  S
Zn111      O1360   1.957       .  S
Zn112       O942   1.900   1_545  S
Zn112       O120   2.064       .  S
Zn112       O531   2.020   1_545  S
Zn112       O951   2.024       .  S
Zn113       O114   1.903   1_445  S
Zn113       O121   2.028       .  S
Zn113       O124   2.067       .  S
Zn113       O539   2.033   1_545  S
O114      Zn1352   1.903       .  S
O114       Zn940   1.900   1_565  S
O115        C127   1.278       .  A
O116       Zn939   1.960   1_545  S
O116        C128   1.264       .  A
O117       Zn526   2.020       .  S
O117        C129   1.277       .  A
O118      Zn1353   1.957       .  S
O118        C127   1.263       .  A
O119        C129   1.277       .  A
O120        C128   1.278       .  A
O121        C130   1.278       .  A
O122        C131   1.262   1_565  A
O123       Zn940   2.024   1_455  S
O123        C130   1.277       .  A
O124        C131   1.278       .  A
O125       Zn527   2.033       .  S
O125        C132   1.279       .  A
O126       Zn938   2.024   1_455  S
O126        C132   1.277       .  A
C127        C279   1.468       .  S
C128        C269   1.469       .  S
C129        C338   1.431       .  S
C130        C342   1.434       .  S
C131        C289   1.467       .  S
C132        C339   1.435       .  S
C133        H134   1.111       .  S
C133        C139   1.551       .  S
C133        C138   1.550       .  S
C133        C137   1.553       .  S
C135        H136   1.113       .  S
C135        C141   1.526       .  S
C135        C140   1.526       .  S
C135        C142   1.526       .  S
C137        C140   1.374       .  D
C137        C256   1.494       .  S
C138        C141   1.370       .  D
C138        C236   1.490       .  S
C139        C142   1.374       .  D
C139        C246   1.494       .  S
C140        C377   1.443       .  S
C141        C375   1.444       .  S
C142        C374   1.442       .  S
C143        H144   1.111       .  S
C143        C148   1.548       .  S
C143        C977   1.551       .  S
C143        C561   1.551   1_545  S
C145        H146   1.112       .  S
C145        C151   1.530   1_565  S
C145        C564   1.531       .  S
C145        C980   1.530   1_565  S
C147        C557   1.551       .  S
C147        C150   1.374       .  D
C147        C249   1.494       .  S
C148        C151   1.369       .  D
C148        C239   1.489       .  S
C149        C971   1.551       .  S
C149        C152   1.372       .  D
C149        C259   1.494       .  S
C150        C559   1.531       .  S
C150        C229   1.448       .  S
C151        C232   1.446       .  S
C152        C973   1.530   1_445  S
C152        C233   1.443       .  S
Zn153       O157   1.899       .  S
Zn153       O158   2.032       .  S
Zn153       O162   2.028       .  S
Zn153       O169   2.065       .  S
Zn154       O157   1.900       .  S
Zn154       O159   2.015       .  S
Zn154       O161   2.019       .  S
Zn154       O165   2.059       .  S
Zn155       O157   1.898       .  S
Zn155       O160   2.026       .  S
Zn155       O163   2.016       .  S
Zn155       O166   2.064       .  S
Zn156       O157   1.835       .  S
Zn156       O164   1.958       .  S
Zn156       O167   1.956       .  S
Zn156       O168   1.953       .  S
O158        C170   1.278       .  A
O159        C171   1.277       .  A
O160        C172   1.278       .  A
O161        C170   1.277       .  A
O162        C172   1.278       .  A
O163        C171   1.277       .  A
O164        C173   1.263       .  A
O165        C174   1.277       .  A
O166        C173   1.278       .  A
O167        C174   1.263       .  A
O168        C175   1.262       .  A
O169        C175   1.278       .  A
C170        C335   1.433       .  S
C171        C331   1.427       .  S
C172        C333   1.434       .  S
C173        C210   1.468       .  S
C174        C200   1.469       .  S
C175        C220   1.465       .  S
Zn176       O180   1.953       .  S
Zn176       O181   2.010       .  S
Zn176       O185   1.996       .  S
Zn176       O192   1.996       .  S
Zn177       O180   1.949       .  S
Zn177       O182   2.030       .  S
Zn177       O184   2.038       .  S
Zn177       O188   2.038       .  S
Zn178       O180   1.949       .  S
Zn178       O183   1.991       .  S
Zn178       O186   2.002       .  S
Zn178       O189   1.985       .  S
Zn179       O180   1.953       .  S
Zn179       O187   2.001       .  S
Zn179       O190   2.008       .  S
Zn179       O191   1.989       .  S
O181        C193   1.272       .  A
O182        C194   1.275       .  A
O183        C195   1.270       .  A
O184        C193   1.276       .  A
O185        C195   1.269       .  A
O186        C194   1.271       .  A
O187        C196   1.271       .  A
O188        C197   1.276       .  A
O189        C196   1.268       .  A
O190        C197   1.272       .  A
O191        C198   1.269       .  A
O192        C198   1.271       .  A
C193        C230   1.437       .  S
C194        C234   1.432       .  S
C195        C203   1.468   1_554  S
C196        C213   1.471   1_554  S
C197        C231   1.436       .  S
C198        C223   1.472   1_554  S
C199        C200   1.401       .  A
C199        C204   1.394       .  A
C199        H205   1.083       .  S
C200        C201   1.407       .  A
C201        C202   1.397       .  A
C201        H206   1.083       .  S
C202        C203   1.401       .  A
C202        H207   1.083   1_556  S
C203        C204   1.406       .  A
C204        H208   1.084       .  S
C209        C210   1.405       .  A
C209        C628   1.396       .  A
C209        H215   1.083       .  S
C210        C211   1.401       .  A
C211        C626   1.395       .  A
C211        H216   1.083       .  S
C212        C213   1.406       .  A
C212        C625   1.395   1_545  A
C212        H217   1.083       .  S
C213        C214   1.404   1_545  A
C214        C623   1.396       .  A
C214        H218   1.083   1_556  S
C219        C220   1.405       .  A
C219       C1052   1.396       .  A
C219        H225   1.083       .  S
C220        C221   1.400       .  A
C221       C1050   1.394   1_455  A
C221        H226   1.083   1_455  S
C222        C223   1.407       .  A
C222       C1049   1.394       .  A
C222        H227   1.083       .  S
C223        C224   1.404       .  A
C224       C1047   1.396       .  A
C224        H228   1.083   1_556  S
C229        C230   1.207       .  T
C231        C232   1.206       .  T
C233        C234   1.204       .  T
C235        C236   1.402       .  A
C235        C240   1.401       .  A
C235        H241   1.078       .  S
C236        C237   1.406       .  A
C237        C238   1.401       .  A
C237        H242   1.083       .  S
C238        C239   1.402       .  A
C238        H657   1.079   1_545  S
C239        C240   1.405       .  A
C240        H244   1.083       .  S
H243        C652   1.079       .  S
C245        C246   1.401       .  A
C245        C250   1.400       .  A
C245        H251   1.077       .  S
C246        C247   1.408       .  A
C247        C248   1.400       .  A
C247        H252   1.082       .  S
C248        C249   1.401       .  A
C248        H253   1.078       .  S
C249        C250   1.408       .  A
C250        H254   1.082       .  S
C255        C256   1.402       .  A
C255        C260   1.402       .  A
C255        H261   1.083       .  S
C256        C257   1.409       .  A
C257        C258   1.402       .  A
C257        H262   1.083       .  S
C258        C259   1.401       .  A
C258        H263   1.083       .  S
C259        C260   1.409       .  A
C260        H264   1.083       .  S
C265        C266   1.407       .  A
C265        C270   1.396       .  A
C265        H271   1.083       .  S
C266        C267   1.404       .  A
C267        C268   1.397       .  A
C267        H272   1.083       .  S
C268        C269   1.406       .  A
C268        H273   1.083       .  S
C269        C270   1.401       .  A
C270        H274   1.083       .  S
C275        C276   1.403       .  A
C275        C280   1.397       .  A
C275        H281   1.083       .  S
C276        C277   1.407       .  A
C277        C278   1.394       .  A
C277        H282   1.083       .  S
C278        C279   1.400       .  A
C278       H1111   1.083       .  S
C279        C280   1.406       .  A
C280        H284   1.083       .  S
H283       C1106   1.083       .  S
C285        C286   1.404       .  A
C285        C290   1.396       .  A
C285        H291   1.083   1_545  S
C286        C287   1.407       .  A
C287        C288   1.396       .  A
C287        H292   1.083       .  S
C288        C289   1.401       .  A
C288        H293   1.083       .  S
C289        C290   1.405       .  A
C290        H708   1.083   1_545  S
H294        C704   1.083       .  S
C295        C520   1.435       .  S
C295        C296   1.206       .  T
C297        C933   1.437   1_455  S
C297        C298   1.207       .  T
C299        C300   1.207       .  T
C301        C302   1.403       .  A
C301        C720   1.402       .  A
C301        H307   1.078       .  S
C302        C303   1.406       .  A
C303        C718   1.402       .  A
C303        H308   1.083       .  S
C304        C305   1.402       .  A
C304        C717   1.402   1_545  A
C304        H309   1.078       .  S
C305        C306   1.406       .  A
C306        C715   1.402   1_545  A
C306        H310   1.083       .  S
C311        C312   1.401       .  A
C311       C1144   1.400   1_455  A
C311        H317   1.078       .  S
C312        C313   1.409       .  A
C313       C1142   1.400   1_455  A
C313        H318   1.082       .  S
C314        C315   1.401       .  A
C314       C1141   1.400       .  A
C314        H319   1.078       .  S
C315        C316   1.408       .  A
C316       C1139   1.400       .  A
C316        H320   1.082       .  S
C321        C322   1.401       .  A
C321        C326   1.402       .  A
C321        H327   1.083       .  S
C322        C323   1.409       .  A
C323        C324   1.402       .  A
C323        H328   1.083       .  S
C324        C325   1.401       .  A
C324        H329   1.083       .  S
C325        C326   1.409       .  A
C326        H330   1.083       .  S
C331        C332   1.201       .  T
C333        C334   1.205       .  T
C335        C336   1.205       .  T
C337        C338   1.203       .  T
C339        C340   1.206       .  T
C341        C342   1.205       .  T
C343        C344   1.401       .  A
C343        C348   1.401       .  A
C343        H349   1.079       .  S
C344        C345   1.406       .  A
C345        C346   1.401       .  A
C345        H350   1.083   1_455  S
C346        C347   1.402       .  A
C346        H351   1.080       .  S
C347        C348   1.406       .  A
C348        H352   1.083       .  S
C353        C354   1.402       .  A
C353        C358   1.403       .  A
C353        H359   1.083       .  S
C354        C355   1.409       .  A
C355        C356   1.403       .  A
C355        H360   1.083       .  S
C356        C357   1.402       .  A
C356        H775   1.083       .  S
C357        C358   1.410       .  A
C358        H362   1.083       .  S
H361        C770   1.083   1_545  S
C363        C364   1.408       .  A
C363        C368   1.400       .  A
C363        H369   1.082       .  S
C364        C365   1.402       .  A
C365        C366   1.401       .  A
C365        H370   1.079       .  S
C366        C367   1.409       .  A
C366        H371   1.082       .  S
C367        C368   1.402       .  A
C368        H372   1.079       .  S
C373        C374   1.204       .  T
C375        C376   1.205       .  T
C377        C378   1.204       .  T
C379        C380   1.406       .  A
C379        C384   1.397       .  A
C379        H385   1.083   1_455  S
C380        C381   1.402       .  A
C381        C382   1.396       .  A
C381        H386   1.083       .  S
C382        C383   1.407       .  A
C382        H387   1.083       .  S
C383        C384   1.404       .  A
C384        H388   1.083   1_455  S
C389        C390   1.407       .  A
C389        C394   1.396       .  A
C389        H395   1.083       .  S
C390        C391   1.403       .  A
C391        C392   1.396       .  A
C391        H396   1.083       .  S
C392        C393   1.407       .  A
C392        H397   1.083       .  S
C393        C394   1.401       .  A
C394        H398   1.083       .  S
C399        C400   1.407       .  A
C399        C404   1.397       .  A
C399        H405   1.083       .  S
C400        C401   1.403       .  A
C401        C402   1.395       .  A
C401        H406   1.083       .  S
C402        C403   1.406       .  A
C402        H821   1.083       .  S
C403        C404   1.402       .  A
C404        H408   1.083       .  S
H407        C816   1.083   1_545  S
C409        C435   1.435   1_545  S
C409        C410   1.206       .  T
C411        C412   1.207       .  T
C412        C851   1.437       .  S
C413        C414   1.206       .  T
Zn415       O419   1.948       .  S
Zn415       O420   1.999       .  S
Zn415       O424   1.994       .  S
Zn415       O431   2.013       .  S
Zn416       O419   1.952       .  S
Zn416       O421   1.999       .  S
Zn416       O423   1.992       .  S
Zn416       O427   2.010       .  S
Zn417       O419   1.950       .  S
Zn417       O422   2.003       .  S
Zn417       O425   1.990       .  S
Zn417       O428   2.011       .  S
Zn418       O419   1.947       .  S
Zn418       O426   2.034       .  S
Zn418       O429   2.036       .  S
Zn418       O430   2.038       .  S
O420        C432   1.271       .  A
O421        C433   1.271       .  A
O422        C434   1.271       .  A
O423        C432   1.270       .  A
O424        C434   1.270       .  A
O425        C433   1.270       .  A
O426        C435   1.275       .  A
O427        C436   1.272       .  A
O428        C435   1.273       .  A
O429        C436   1.276       .  A
O430        C437   1.276       .  A
O431        C437   1.273       .  A
C432        C804   1.473       .  S
C433        C814   1.473       .  S
C434        C797   1.475       .  S
C436        C828   1.436       .  S
C437       C1654   1.437   1_455  S
Zn438       O442   1.837       .  S
Zn438       O447   1.958       .  S
Zn438      O1282   1.952   1_565  S
Zn439       O444   2.027       .  S
Zn439       O446   2.069       .  S
Zn439      O1278   2.024   1_455  S
Zn440       O442   1.899   1_455  S
Zn440       O445   2.062       .  S
Zn440      O1279   2.022   1_455  S
Zn441      O1270   1.904       .  S
Zn441       O449   2.023       .  S
Zn441       O453   2.067       .  S
O442      Zn1269   1.904       .  S
O443        C455   1.263       .  A
O444        C456   1.278       .  A
O445        C457   1.278       .  A
O446        C455   1.278       .  A
O447        C457   1.264   1_655  A
O448        C456   1.277       .  A
O449        C458   1.278       .  A
O450      Zn1267   2.024       .  S
O450        C459   1.278       .  A
O451      Zn1268   2.022       .  S
O451        C458   1.277       .  A
O452        C459   1.278       .  A
O453        C460   1.278       .  A
O454      Zn1266   1.952   1_545  S
O454        C460   1.262   1_545  A
C455        C807   1.471       .  S
C456        C792   1.432       .  S
C457        C794   1.470       .  S
C458        C787   1.431       .  S
C459        C790   1.434       .  S
C460        C817   1.469       .  S
C461        H462   1.111       .  S
C461        C467   1.552       .  S
C461        C466   1.552       .  S
C461        C465   1.551       .  S
C463        H464   1.113       .  S
C463        C469   1.527       .  S
C463        C468   1.526       .  S
C463        C470   1.527       .  S
C465        C468   1.370       .  D
C465        C761   1.488       .  S
C466        C469   1.373       .  D
C466        C768   1.495       .  S
C467        C470   1.375       .  D
C467        C778   1.497       .  S
C468        C754   1.445       .  S
C469        C751   1.441       .  S
C470        C755   1.444       .  S
C471        H472   1.111       .  S
C471       C1305   1.550       .  S
C471        C476   1.552       .  S
C471        C889   1.552   1_565  S
C473        H474   1.113       .  S
C473        C479   1.526       .  S
C473        C892   1.527   1_565  S
C473       C1308   1.526       .  S
C475        C885   1.552   1_455  S
C475        C478   1.374       .  D
C475        C781   1.497       .  S
C476        C479   1.372       .  D
C476        C771   1.495       .  S
C477       C1299   1.550   1_455  S
C477        C480   1.370       .  D
C477        C758   1.488       .  S
C478        C887   1.527   1_455  S
C478        C750   1.444       .  S
C479        C746   1.438       .  S
C480       C1301   1.526   1_455  S
C480        C748   1.444       .  S
C481        H482   1.111       .  S
C481        C487   1.551       .  S
C481        C486   1.552       .  S
C481        C485   1.550       .  S
C483        H484   1.112       .  S
C483        C489   1.531       .  S
C483        C488   1.531       .  S
C483        C490   1.530       .  S
C485        C488   1.371       .  D
C485        C716   1.492       .  S
C486        C489   1.375       .  D
C486        C726   1.497       .  S
C487        C490   1.372       .  D
C487        C736   1.492       .  S
C488        C710   1.445       .  S
C489        C712   1.448       .  S
C490        C714   1.448       .  S
C491        H492   1.112       .  S
C491        C497   1.530       .  S
C491        C496   1.530       .  S
C491        C495   1.531       .  S
C493        H494   1.111       .  S
C493        C499   1.551       .  S
C493        C498   1.551       .  S
C493        C500   1.550       .  S
C495        C498   1.375       .  D
C495        C825   1.448       .  S
C496        C499   1.372       .  D
C496        C827   1.447       .  S
C497        C500   1.371       .  D
C497        C824   1.446       .  S
C498        C729   1.497       .  S
C499        C739   1.492       .  S
C500        C719   1.492       .  S
Zn501       O505   1.953       .  S
Zn501       O506   2.002       .  S
Zn501       O510   2.012       .  S
Zn501       O517   1.989       .  S
Zn502       O505   1.951       .  S
Zn502       O507   2.010       .  S
Zn502       O509   1.992       .  S
Zn502       O513   1.992       .  S
Zn503       O505   1.949       .  S
Zn503       O508   2.034       .  S
Zn503       O511   2.039       .  S
Zn503       O514   2.039       .  S
Zn504       O505   1.955       .  S
Zn504       O512   2.010       .  S
Zn504       O515   1.994       .  S
Zn504       O516   1.999       .  S
O506        C518   1.271       .  A
O507        C519   1.272       .  A
O508        C520   1.275       .  A
O509        C518   1.269       .  A
O510        C520   1.273       .  A
O511        C519   1.276       .  A
O512        C521   1.272       .  A
O513        C522   1.270       .  A
O514        C521   1.276       .  A
O515        C522   1.269       .  A
O516        C523   1.271       .  A
O517        C523   1.269       .  A
C518        C680   1.474       .  S
C519       C1539   1.437       .  S
C521        C713   1.437       .  S
C522        C690   1.472       .  S
C523        C700   1.472       .  S
Zn524       O942   1.903       .  S
Zn524       O529   2.064       .  S
Zn524       O533   2.022       .  S
Zn524      O1368   2.024       .  S
Zn525       O528   1.838       .  S
Zn525      O1358   1.960   1_655  S
Zn525       O946   1.957       .  S
Zn525       O536   1.952   1_655  S
Zn526      O1356   1.900       .  S
Zn526       O534   2.064       .  S
Zn526      O1365   2.024       .  S
Zn527       O528   1.903   1_455  S
Zn527       O535   2.028       .  S
Zn527       O538   2.067       .  S
O528       Zn938   1.903       .  S
O528      Zn1354   1.900       .  S
O529        C541   1.278       .  A
O530      Zn1353   1.960       .  S
O530        C542   1.264       .  A
O531        C543   1.277       .  A
O532       Zn939   1.957       .  S
O532        C541   1.263       .  A
O533        C543   1.277       .  A
O534        C542   1.278       .  A
O535        C544   1.278       .  A
O536        C545   1.262       .  A
O537      Zn1354   2.024   1_455  S
O537        C544   1.277       .  A
O538        C545   1.278       .  A
O539        C546   1.279       .  A
O540      Zn1352   2.024   1_455  S
O540        C546   1.277       .  A
C541        C693   1.468       .  S
C542        C683   1.469       .  S
C543        C752   1.431       .  S
C544        C756   1.434       .  S
C545        C703   1.467       .  S
C546        C753   1.435       .  S
C547        H548   1.111       .  S
C547        C553   1.551       .  S
C547        C552   1.550       .  S
C547        C551   1.553       .  S
C549        H550   1.113       .  S
C549        C555   1.526       .  S
C549        C554   1.526       .  S
C549        C556   1.526       .  S
C551        C554   1.374       .  D
C551        C670   1.494       .  S
C552        C555   1.370       .  D
C552        C650   1.490       .  S
C553        C556   1.374       .  D
C553        C660   1.494       .  S
C554        C791   1.443       .  S
C555        C789   1.444       .  S
C556        C788   1.442       .  S
C557        H558   1.111       .  S
C557       C1391   1.551       .  S
C557        C562   1.549       .  S
C559        H560   1.112       .  S
C559        C565   1.530       .  S
C559       C1394   1.530       .  S
C561        C564   1.374       .  D
C561        C663   1.494       .  S
C562        C565   1.369       .  D
C562        C653   1.489       .  S
C563       C1385   1.551   1_455  S
C563        C566   1.372       .  D
C563        C673   1.494       .  S
C564        C643   1.448       .  S
C565        C646   1.446       .  S
C566       C1387   1.530   1_455  S
C566        C647   1.443       .  S
Zn567       O571   1.899       .  S
Zn567       O572   2.032       .  S
Zn567       O576   2.028       .  S
Zn567       O583   2.065       .  S
Zn568       O571   1.900       .  S
Zn568       O573   2.015       .  S
Zn568       O575   2.019       .  S
Zn568       O579   2.059       .  S
Zn569       O571   1.898       .  S
Zn569       O574   2.026       .  S
Zn569       O577   2.015       .  S
Zn569       O580   2.064       .  S
Zn570       O571   1.835       .  S
Zn570       O578   1.958       .  S
Zn570       O581   1.956       .  S
Zn570       O582   1.953       .  S
O572        C584   1.278       .  A
O573        C585   1.277       .  A
O574        C586   1.278       .  A
O575        C584   1.277       .  A
O576        C586   1.278       .  A
O577        C585   1.277       .  A
O578        C587   1.263       .  A
O579        C588   1.277       .  A
O580        C587   1.278       .  A
O581        C588   1.263       .  A
O582        C589   1.262       .  A
O583        C589   1.278       .  A
C584        C749   1.433       .  S
C585        C745   1.427       .  S
C586        C747   1.434       .  S
C587        C624   1.468       .  S
C588        C614   1.469       .  S
C589        C634   1.465       .  S
Zn590       O594   1.953       .  S
Zn590       O595   2.010       .  S
Zn590       O599   1.996       .  S
Zn590       O606   1.996       .  S
Zn591       O594   1.949       .  S
Zn591       O596   2.030       .  S
Zn591       O598   2.038       .  S
Zn591       O602   2.038       .  S
Zn592       O594   1.949       .  S
Zn592       O597   1.991       .  S
Zn592       O600   2.002       .  S
Zn592       O603   1.985       .  S
Zn593       O594   1.953       .  S
Zn593       O601   2.001       .  S
Zn593       O604   2.009       .  S
Zn593       O605   1.989       .  S
O595        C607   1.272       .  A
O596        C608   1.275       .  A
O597        C609   1.270       .  A
O598        C607   1.276       .  A
O599        C609   1.269       .  A
O600        C608   1.271       .  A
O601        C610   1.271       .  A
O602        C611   1.276       .  A
O603        C610   1.268       .  A
O604        C611   1.272       .  A
O605        C612   1.269       .  A
O606        C612   1.271       .  A
C607        C644   1.437       .  S
C608        C648   1.432       .  S
C609        C617   1.468   1_554  S
C610        C627   1.471   1_554  S
C611        C645   1.436       .  S
C612        C637   1.472   1_554  S
C613        C614   1.401       .  A
C613        C618   1.394       .  A
C613        H619   1.083       .  S
C614        C615   1.407       .  A
C615        C616   1.397       .  A
C615        H620   1.083       .  S
C616        C617   1.401       .  A
C616        H621   1.083   1_556  S
C617        C618   1.406       .  A
C618        H622   1.084       .  S
C623        C624   1.405       .  A
C623        H629   1.083       .  S
C624        C625   1.401       .  A
C625        H630   1.083   1_565  S
C626        C627   1.406       .  A
C626        H631   1.083       .  S
C627        C628   1.404       .  A
C628        H632   1.083   1_556  S
C633        C634   1.405       .  A
C633       C1466   1.396       .  A
C633        H639   1.083       .  S
C634        C635   1.400       .  A
C635       C1464   1.394   1_455  A
C635        H640   1.083   1_455  S
C636       C1463   1.394       .  A
C636        C637   1.407       .  A
C636        H641   1.083       .  S
C637        C638   1.404       .  A
C638       C1461   1.396       .  A
C638        H642   1.083   1_556  S
C643        C644   1.207       .  T
C645        C646   1.206       .  T
C647        C648   1.204       .  T
C649        C650   1.402       .  A
C649        C654   1.401       .  A
C649        H655   1.078       .  S
C650        C651   1.406       .  A
C651        C652   1.401       .  A
C651        H656   1.083       .  S
C652        C653   1.402       .  A
C653        C654   1.405       .  A
C654        H658   1.083       .  S
C659        C660   1.401       .  A
C659        C664   1.400       .  A
C659        H665   1.077       .  S
C660        C661   1.408       .  A
C661        C662   1.400       .  A
C661        H666   1.082       .  S
C662        C663   1.401       .  A
C662        H667   1.078       .  S
C663        C664   1.408       .  A
C664        H668   1.082       .  S
C669        C670   1.402       .  A
C669        C674   1.402       .  A
C669        H675   1.083       .  S
C670        C671   1.409       .  A
C671        C672   1.402       .  A
C671        H676   1.083       .  S
C672        C673   1.401       .  A
C672        H677   1.083       .  S
C673        C674   1.409       .  A
C674        H678   1.083       .  S
C679        C680   1.407       .  A
C679        C684   1.396       .  A
C679        H685   1.083       .  S
C680        C681   1.404       .  A
C681        C682   1.397       .  A
C681        H686   1.083       .  S
C682        C683   1.405       .  A
C682        H687   1.083       .  S
C683        C684   1.401       .  A
C684        H688   1.083       .  S
C689        C690   1.403       .  A
C689        C694   1.397       .  A
C689        H695   1.083       .  S
C690        C691   1.407       .  A
C691        C692   1.394       .  A
C691        H696   1.083       .  S
C692        C693   1.400       .  A
C692       H1525   1.083       .  S
C693        C694   1.406       .  A
C694        H698   1.083       .  S
H697       C1520   1.083       .  S
C699        C700   1.404       .  A
C699        C704   1.396       .  A
C699        H705   1.083       .  S
C700        C701   1.407       .  A
C701        C702   1.396       .  A
C701        H706   1.083       .  S
C702        C703   1.401       .  A
C702        H707   1.083       .  S
C703        C704   1.405       .  A
C709        C710   1.206       .  T
C711       C1347   1.437   1_455  S
C711        C712   1.207       .  T
C713        C714   1.207       .  T
C715        C716   1.403       .  A
C715        H721   1.078       .  S
C716        C717   1.406       .  A
C717        H722   1.083       .  S
C718        C719   1.402       .  A
C718        H723   1.078       .  S
C719        C720   1.406       .  A
C720        H724   1.083       .  S
C725        C726   1.401       .  A
C725       C1558   1.400   1_455  A
C725        H731   1.078       .  S
C726        C727   1.409       .  A
C727       C1556   1.400   1_455  A
C727        H732   1.082       .  S
C728       C1555   1.400       .  A
C728        C729   1.401       .  A
C728        H733   1.078       .  S
C729        C730   1.408       .  A
C730       C1553   1.400       .  A
C730        H734   1.082       .  S
C735        C736   1.401       .  A
C735        C740   1.402       .  A
C735        H741   1.083       .  S
C736        C737   1.409       .  A
C737        C738   1.402       .  A
C737        H742   1.083       .  S
C738        C739   1.401       .  A
C738        H743   1.083       .  S
C739        C740   1.409       .  A
C740        H744   1.083       .  S
C745        C746   1.201       .  T
C747        C748   1.205       .  T
C749        C750   1.205       .  T
C751        C752   1.203       .  T
C753        C754   1.205       .  T
C755        C756   1.205       .  T
C757        C758   1.401       .  A
C757        C762   1.401       .  A
C757        H763   1.079   1_565  S
C758        C759   1.406       .  A
C759        C760   1.401       .  A
C759        H764   1.083   1_455  S
C760        C761   1.402       .  A
C760        H765   1.080       .  S
C761        C762   1.406       .  A
C762        H766   1.083       .  S
C767        C768   1.402       .  A
C767        C772   1.403       .  A
C767        H773   1.083       .  S
C768        C769   1.409       .  A
C769        C770   1.403       .  A
C769        H774   1.083       .  S
C770        C771   1.402       .  A
C771        C772   1.410       .  A
C772        H776   1.083       .  S
C777        C778   1.408       .  A
C777        C782   1.400       .  A
C777        H783   1.082       .  S
C778        C779   1.402       .  A
C779        C780   1.401       .  A
C779        H784   1.079       .  S
C780        C781   1.409       .  A
C780        H785   1.082       .  S
C781        C782   1.402       .  A
C782        H786   1.079       .  S
C787        C788   1.204       .  T
C789        C790   1.205       .  T
C791        C792   1.204       .  T
C793        C794   1.406       .  A
C793        C798   1.397       .  A
C793        H799   1.083   1_455  S
C794        C795   1.402       .  A
C795        C796   1.396       .  A
C795        H800   1.083       .  S
C796        C797   1.407       .  A
C796        H801   1.083       .  S
C797        C798   1.404       .  A
C798        H802   1.083   1_455  S
C803        C804   1.407       .  A
C803        C808   1.396       .  A
C803        H809   1.083       .  S
C804        C805   1.403       .  A
C805        C806   1.396       .  A
C805        H810   1.083       .  S
C806        C807   1.407       .  A
C806        H811   1.083       .  S
C807        C808   1.401       .  A
C808        H812   1.083       .  S
C813        C814   1.407       .  A
C813        C818   1.397       .  A
C813        H819   1.083       .  S
C814        C815   1.403       .  A
C815        C816   1.395       .  A
C815        H820   1.083   1_565  S
C816        C817   1.406       .  A
C817        C818   1.402       .  A
C818        H822   1.083       .  S
C823        C824   1.206       .  T
C825        C826   1.207       .  T
C826       C1265   1.437       .  S
C827        C828   1.206       .  T
Zn829       O833   1.948       .  S
Zn829       O834   1.999       .  S
Zn829       O838   1.994       .  S
Zn829       O845   2.012       .  S
Zn830       O833   1.952       .  S
Zn830       O835   1.999       .  S
Zn830       O837   1.992       .  S
Zn830       O841   2.010       .  S
Zn831       O833   1.950       .  S
Zn831       O836   2.003       .  S
Zn831       O839   1.990       .  S
Zn831       O842   2.010       .  S
Zn832       O833   1.947       .  S
Zn832       O840   2.034       .  S
Zn832       O843   2.036       .  S
Zn832       O844   2.038       .  S
O834        C846   1.271       .  A
O835        C847   1.271       .  A
O836        C848   1.271       .  A
O837        C846   1.270       .  A
O838        C848   1.270       .  A
O839        C847   1.270       .  A
O840        C849   1.275       .  A
O841        C850   1.272       .  A
O842        C849   1.273       .  A
O843        C850   1.276       .  A
O844        C851   1.276       .  A
O845        C851   1.273       .  A
C846       C1218   1.473       .  S
C847       C1228   1.473       .  S
C848       C1211   1.475       .  S
C849       C1651   1.435       .  S
C850       C1242   1.436       .  S
Zn852       O856   1.837       .  S
Zn852      O1271   1.953       .  S
Zn852       O861   1.958       .  S
Zn853      O1270   1.903   1_545  S
Zn853       O858   2.027       .  S
Zn853       O860   2.069       .  S
Zn854       O856   1.899       .  S
Zn854       O859   2.062       .  S
Zn854      O1276   2.021       .  S
Zn855       O863   2.023       .  S
Zn855      O1280   2.030       .  S
Zn855       O867   2.067       .  S
O856      Zn1267   1.903       .  S
O857      Zn1266   1.953   1_545  S
O857        C869   1.262       .  A
O858        C870   1.278       .  A
O859        C871   1.278       .  A
O860        C869   1.278       .  A
O861        C871   1.264       .  A
O862      Zn1268   2.021   1_545  S
O862        C870   1.277       .  A
O863        C872   1.278       .  A
O864        C873   1.278       .  A
O865        C872   1.277       .  A
O866      Zn1269   2.030   1_545  S
O866        C873   1.278       .  A
O867        C874   1.278       .  A
O868        C874   1.262       .  A
C869       C1221   1.471       .  S
C870       C1206   1.432       .  S
C871       C1208   1.470       .  S
C872       C1201   1.431       .  S
C873       C1204   1.434       .  S
C874       C1231   1.469       .  S
C875        H876   1.111       .  S
C875        C881   1.552       .  S
C875        C880   1.552       .  S
C875        C879   1.551       .  S
C877        H878   1.113       .  S
C877        C883   1.527       .  S
C877        C882   1.526       .  S
C877        C884   1.527       .  S
C879        C882   1.370       .  D
C879       C1175   1.488       .  S
C880        C883   1.373       .  D
C880       C1182   1.495       .  S
C881        C884   1.375       .  D
C881       C1192   1.497       .  S
C882       C1168   1.445       .  S
C883       C1165   1.441       .  S
C884       C1169   1.444       .  S
C885        H886   1.111       .  S
C885        C890   1.552       .  S
C887        H888   1.113       .  S
C887        C893   1.526       .  S
C889        C892   1.374       .  D
C889       C1195   1.497       .  S
C890        C893   1.372       .  D
C890       C1185   1.495       .  S
C891        C894   1.370       .  D
C891       C1172   1.488       .  S
C892       C1164   1.444       .  S
C893       C1160   1.438       .  S
C894       C1162   1.444       .  S
C895        H896   1.111       .  S
C895        C901   1.551       .  S
C895        C900   1.552       .  S
C895        C899   1.550       .  S
C897        H898   1.112       .  S
C897        C903   1.531       .  S
C897        C902   1.531       .  S
C897        C904   1.530       .  S
C899        C902   1.371       .  D
C899       C1130   1.492       .  S
C900        C903   1.375       .  D
C900       C1140   1.497       .  S
C901        C904   1.372       .  D
C901       C1150   1.492       .  S
C902       C1124   1.445       .  S
C903       C1126   1.448       .  S
C904       C1128   1.448       .  S
C905        H906   1.112       .  S
C905        C911   1.530       .  S
C905        C910   1.530       .  S
C905        C909   1.531       .  S
C907        H908   1.111       .  S
C907        C913   1.551       .  S
C907        C912   1.551       .  S
C907        C914   1.550       .  S
C909        C912   1.375       .  D
C909       C1239   1.448       .  S
C910        C913   1.372       .  D
C910       C1241   1.447       .  S
C911        C914   1.371       .  D
C911       C1238   1.446       .  S
C912       C1143   1.497       .  S
C913       C1153   1.492       .  S
C914       C1133   1.492       .  S
Zn915       O919   1.953       .  S
Zn915       O920   2.002       .  S
Zn915       O924   2.012       .  S
Zn915       O931   1.989       .  S
Zn916       O919   1.951       .  S
Zn916       O921   2.010       .  S
Zn916       O923   1.992       .  S
Zn916       O927   1.992       .  S
Zn917       O919   1.949       .  S
Zn917       O922   2.034       .  S
Zn917       O925   2.039       .  S
Zn917       O928   2.039       .  S
Zn918       O919   1.955       .  S
Zn918       O926   2.010       .  S
Zn918       O929   1.994       .  S
Zn918       O930   1.999       .  S
O920        C932   1.271       .  A
O921        C933   1.272       .  A
O922        C934   1.275       .  A
O923        C932   1.269       .  A
O924        C934   1.273       .  A
O925        C933   1.276       .  A
O926        C935   1.272       .  A
O927        C936   1.270       .  A
O928        C935   1.276       .  A
O929        C936   1.269       .  A
O930        C937   1.271       .  A
O931        C937   1.269       .  A
C932       C1094   1.474       .  S
C934       C1537   1.435   1_545  S
C935       C1127   1.437       .  S
C936       C1104   1.472       .  S
C937       C1114   1.472       .  S
Zn938       O943   2.064       .  S
Zn938       O947   2.022       .  S
Zn939       O942   1.838       .  S
Zn939       O950   1.952       .  S
Zn940      O1359   2.020   1_545  S
Zn940       O948   2.064       .  S
Zn941       O942   1.903   1_545  S
Zn941       O949   2.028       .  S
Zn941       O952   2.067       .  S
Zn941      O1367   2.033   1_545  S
O943        C955   1.278       .  A
O944        C956   1.264   1_455  A
O945      Zn1354   2.020       .  S
O945        C957   1.277       .  A
O946        C955   1.263       .  A
O947        C957   1.277       .  A
O948        C956   1.278       .  A
O949        C958   1.278       .  A
O950        C959   1.262   1_565  A
O951        C958   1.277       .  A
O952        C959   1.278       .  A
O953      Zn1355   2.033       .  S
O953        C960   1.279       .  A
O954        C960   1.277       .  A
C955       C1107   1.468       .  S
C956       C1097   1.469       .  S
C957       C1166   1.431       .  S
C958       C1170   1.434       .  S
C959       C1117   1.467       .  S
C960       C1167   1.435       .  S
C961        H962   1.111       .  S
C961        C967   1.551       .  S
C961        C966   1.550       .  S
C961        C965   1.553       .  S
C963        H964   1.113       .  S
C963        C969   1.526       .  S
C963        C968   1.526       .  S
C963        C970   1.526       .  S
C965        C968   1.374       .  D
C965       C1084   1.494       .  S
C966        C969   1.370       .  D
C966       C1064   1.490       .  S
C967        C970   1.374       .  D
C967       C1074   1.494       .  S
C968       C1205   1.443       .  S
C969       C1203   1.444       .  S
C970       C1202   1.442       .  S
C971        H972   1.111       .  S
C971        C976   1.548   1_455  S
C971       C1389   1.551   1_445  S
C973        H974   1.112       .  S
C973        C979   1.530   1_565  S
C973       C1392   1.531       .  S
C975       C1385   1.551       .  S
C975        C978   1.374       .  D
C975       C1077   1.494       .  S
C976        C979   1.369       .  D
C976       C1067   1.489       .  S
C977        C980   1.372       .  D
C977       C1087   1.494       .  S
C978       C1387   1.531       .  S
C978       C1057   1.448       .  S
C979       C1060   1.446       .  S
C980       C1061   1.443       .  S
Zn981       O985   1.899       .  S
Zn981       O986   2.032       .  S
Zn981       O990   2.028       .  S
Zn981       O997   2.065       .  S
Zn982       O985   1.900       .  S
Zn982       O987   2.015       .  S
Zn982       O989   2.019       .  S
Zn982       O993   2.059       .  S
Zn983       O985   1.898       .  S
Zn983       O988   2.026       .  S
Zn983       O991   2.016       .  S
Zn983       O994   2.064       .  S
Zn984       O985   1.835       .  S
Zn984       O992   1.958       .  S
Zn984       O995   1.956       .  S
Zn984       O996   1.953       .  S
O986        C998   1.278       .  A
O987        C999   1.277       .  A
O988       C1000   1.278       .  A
O989        C998   1.277       .  A
O990       C1000   1.278       .  A
O991        C999   1.277       .  A
O992       C1001   1.263       .  A
O993       C1002   1.277       .  A
O994       C1001   1.278       .  A
O995       C1002   1.263       .  A
O996       C1003   1.262       .  A
O997       C1003   1.278       .  A
C998       C1163   1.433       .  S
C999       C1159   1.427       .  S
C1000      C1161   1.434       .  S
C1001      C1038   1.468       .  S
C1002      C1028   1.469       .  S
C1003      C1048   1.465       .  S
Zn1004     O1008   1.953       .  S
Zn1004     O1009   2.010       .  S
Zn1004     O1013   1.996       .  S
Zn1004     O1020   1.996       .  S
Zn1005     O1008   1.949       .  S
Zn1005     O1010   2.030       .  S
Zn1005     O1012   2.038       .  S
Zn1005     O1016   2.038       .  S
Zn1006     O1008   1.949       .  S
Zn1006     O1011   1.991       .  S
Zn1006     O1014   2.002       .  S
Zn1006     O1017   1.985       .  S
Zn1007     O1008   1.953       .  S
Zn1007     O1015   2.001       .  S
Zn1007     O1018   2.008       .  S
Zn1007     O1019   1.989       .  S
O1009      C1021   1.272       .  A
O1010      C1022   1.275       .  A
O1011      C1023   1.270       .  A
O1012      C1021   1.276       .  A
O1013      C1023   1.269       .  A
O1014      C1022   1.271       .  A
O1015      C1024   1.271       .  A
O1016      C1025   1.276       .  A
O1017      C1024   1.268       .  A
O1018      C1025   1.272       .  A
O1019      C1026   1.269       .  A
O1020      C1026   1.271       .  A
C1021      C1058   1.437       .  S
C1022      C1062   1.432       .  S
C1023      C1031   1.468   1_554  S
C1024      C1041   1.471   1_554  S
C1025      C1059   1.436       .  S
C1026      C1051   1.472   1_554  S
C1027      C1028   1.401       .  A
C1027      C1032   1.394       .  A
C1027      H1033   1.083       .  S
C1028      C1029   1.407       .  A
C1029      C1030   1.397       .  A
C1029      H1034   1.083       .  S
C1030      C1031   1.401       .  A
C1030      H1035   1.083   1_556  S
C1031      C1032   1.406       .  A
C1032      H1036   1.084       .  S
C1037      C1038   1.405       .  A
C1037      C1456   1.396       .  A
C1037      H1043   1.083       .  S
C1038      C1039   1.401       .  A
C1039      C1454   1.395       .  A
C1039      H1044   1.083       .  S
C1040      C1453   1.395   1_545  A
C1040      C1041   1.406       .  A
C1040      H1045   1.083       .  S
C1041      C1042   1.404   1_545  A
C1042      C1451   1.396       .  A
C1042      H1046   1.083   1_556  S
C1047      C1048   1.405       .  A
C1047      H1053   1.083       .  S
C1048      C1049   1.400       .  A
C1049      H1054   1.083       .  S
C1050      C1051   1.407       .  A
C1050      H1055   1.083       .  S
C1051      C1052   1.404   1_655  A
C1052      H1056   1.083   1_556  S
C1057      C1058   1.207       .  T
C1059      C1060   1.206       .  T
C1061      C1062   1.204       .  T
C1063      C1064   1.402       .  A
C1063      C1068   1.401       .  A
C1063      H1069   1.078       .  S
C1064      C1065   1.406       .  A
C1065      C1066   1.401       .  A
C1065      H1070   1.083       .  S
C1066      C1067   1.402       .  A
C1066      H1485   1.079   1_545  S
C1067      C1068   1.405       .  A
C1068      H1072   1.083       .  S
H1071      C1480   1.079       .  S
C1073      C1074   1.401       .  A
C1073      C1078   1.400       .  A
C1073      H1079   1.077       .  S
C1074      C1075   1.408       .  A
C1075      C1076   1.400       .  A
C1075      H1080   1.082       .  S
C1076      C1077   1.401       .  A
C1076      H1081   1.078       .  S
C1077      C1078   1.408       .  A
C1078      H1082   1.082       .  S
C1083      C1084   1.402       .  A
C1083      C1088   1.402       .  A
C1083      H1089   1.083       .  S
C1084      C1085   1.409       .  A
C1085      C1086   1.402       .  A
C1085      H1090   1.083       .  S
C1086      C1087   1.401       .  A
C1086      H1091   1.083       .  S
C1087      C1088   1.409       .  A
C1088      H1092   1.083       .  S
C1093      C1094   1.407       .  A
C1093      C1098   1.396       .  A
C1093      H1099   1.083       .  S
C1094      C1095   1.404       .  A
C1095      C1096   1.397       .  A
C1095      H1100   1.083   1_655  S
C1096      C1097   1.406       .  A
C1096      H1101   1.083   1_655  S
C1097      C1098   1.401       .  A
C1098      H1102   1.083       .  S
C1103      C1104   1.403       .  A
C1103      C1108   1.397       .  A
C1103      H1109   1.083       .  S
C1104      C1105   1.407       .  A
C1105      C1106   1.394       .  A
C1105      H1110   1.083       .  S
C1106      C1107   1.400       .  A
C1107      C1108   1.406       .  A
C1108      H1112   1.083       .  S
C1113      C1114   1.404       .  A
C1113      C1118   1.396       .  A
C1113      H1119   1.083   1_545  S
C1114      C1115   1.407       .  A
C1115      C1116   1.396       .  A
C1115      H1120   1.083       .  S
C1116      C1117   1.401       .  A
C1116      H1121   1.083       .  S
C1117      C1118   1.405       .  A
C1118      H1536   1.083   1_545  S
H1122      C1532   1.083       .  S
C1123      C1348   1.435       .  S
C1123      C1124   1.206       .  T
C1125      C1126   1.207       .  T
C1127      C1128   1.207       .  T
C1129      C1130   1.403       .  A
C1129      C1548   1.402       .  A
C1129      H1135   1.078       .  S
C1130      C1131   1.406       .  A
C1131      C1546   1.402       .  A
C1131      H1136   1.083       .  S
C1132      C1545   1.402   1_545  A
C1132      C1133   1.402       .  A
C1132      H1137   1.078       .  S
C1133      C1134   1.406       .  A
C1134      C1543   1.402   1_545  A
C1134      H1138   1.083       .  S
C1139      C1140   1.401       .  A
C1139      H1145   1.078       .  S
C1140      C1141   1.409       .  A
C1141      H1146   1.082       .  S
C1142      C1143   1.401       .  A
C1142      H1147   1.078       .  S
C1143      C1144   1.408       .  A
C1144      H1148   1.082       .  S
C1149      C1150   1.401       .  A
C1149      C1154   1.402       .  A
C1149      H1155   1.083       .  S
C1150      C1151   1.409       .  A
C1151      C1152   1.402       .  A
C1151      H1156   1.083       .  S
C1152      C1153   1.401       .  A
C1152      H1157   1.083       .  S
C1153      C1154   1.409       .  A
C1154      H1158   1.083       .  S
C1159      C1160   1.201       .  T
C1161      C1162   1.205       .  T
C1163      C1164   1.205       .  T
C1165      C1166   1.203       .  T
C1167      C1168   1.206       .  T
C1169      C1170   1.205       .  T
C1171      C1172   1.401       .  A
C1171      C1176   1.401       .  A
C1171      H1177   1.079       .  S
C1172      C1173   1.406       .  A
C1173      C1174   1.401       .  A
C1173      H1178   1.083       .  S
C1174      C1175   1.402       .  A
C1174      H1179   1.080       .  S
C1175      C1176   1.406       .  A
C1176      H1180   1.083       .  S
C1181      C1182   1.402       .  A
C1181      C1186   1.403       .  A
C1181      H1187   1.083       .  S
C1182      C1183   1.409       .  A
C1183      C1184   1.403       .  A
C1183      H1188   1.083       .  S
C1184      C1185   1.402       .  A
C1184      H1603   1.083       .  S
C1185      C1186   1.410       .  A
C1186      H1190   1.083       .  S
H1189      C1598   1.083   1_545  S
C1191      C1192   1.408       .  A
C1191      C1196   1.400       .  A
C1191      H1197   1.082       .  S
C1192      C1193   1.402       .  A
C1193      C1194   1.401       .  A
C1193      H1198   1.079       .  S
C1194      C1195   1.409       .  A
C1194      H1199   1.082       .  S
C1195      C1196   1.402       .  A
C1196      H1200   1.079       .  S
C1201      C1202   1.204       .  T
C1203      C1204   1.205       .  T
C1205      C1206   1.204       .  T
C1207      C1208   1.406       .  A
C1207      C1212   1.397       .  A
C1207      H1213   1.083       .  S
C1208      C1209   1.402       .  A
C1209      C1210   1.396       .  A
C1209      H1214   1.083       .  S
C1210      C1211   1.407       .  A
C1210      H1215   1.083       .  S
C1211      C1212   1.404       .  A
C1212      H1216   1.083       .  S
C1217      C1218   1.407       .  A
C1217      C1222   1.396       .  A
C1217      H1223   1.083       .  S
C1218      C1219   1.403       .  A
C1219      C1220   1.396       .  A
C1219      H1224   1.083       .  S
C1220      C1221   1.407       .  A
C1220      H1225   1.083       .  S
C1221      C1222   1.401       .  A
C1222      H1226   1.083       .  S
C1227      C1228   1.407       .  A
C1227      C1232   1.397       .  A
C1227      H1233   1.083       .  S
C1228      C1229   1.403       .  A
C1229      C1230   1.395       .  A
C1229      H1234   1.083       .  S
C1230      C1231   1.406       .  A
C1230      H1649   1.083       .  S
C1231      C1232   1.402       .  A
C1232      H1236   1.083       .  S
H1235      C1644   1.083   1_545  S
C1237      C1263   1.435   1_545  S
C1237      C1238   1.206       .  T
C1239      C1240   1.207       .  T
C1241      C1242   1.206       .  T
Zn1243     O1247   1.948       .  S
Zn1243     O1248   1.999       .  S
Zn1243     O1252   1.994       .  S
Zn1243     O1259   2.013       .  S
Zn1244     O1247   1.952       .  S
Zn1244     O1249   1.999       .  S
Zn1244     O1251   1.992       .  S
Zn1244     O1255   2.010       .  S
Zn1245     O1247   1.950       .  S
Zn1245     O1250   2.003       .  S
Zn1245     O1253   1.990       .  S
Zn1245     O1256   2.011       .  S
Zn1246     O1247   1.947       .  S
Zn1246     O1254   2.034       .  S
Zn1246     O1257   2.036       .  S
Zn1246     O1258   2.038       .  S
O1248      C1260   1.271       .  A
O1249      C1261   1.271       .  A
O1250      C1262   1.271       .  A
O1251      C1260   1.270       .  A
O1252      C1262   1.270       .  A
O1253      C1261   1.270       .  A
O1254      C1263   1.275       .  A
O1255      C1264   1.272       .  A
O1256      C1263   1.273       .  A
O1257      C1264   1.276       .  A
O1258      C1265   1.276       .  A
O1259      C1265   1.273       .  A
C1260      C1632   1.473       .  S
C1261      C1642   1.473       .  S
C1262      C1625   1.475       .  S
C1264      C1656   1.436       .  S
Zn1266     O1270   1.837       .  S
Zn1266     O1275   1.958       .  S
Zn1267     O1272   2.027       .  S
Zn1267     O1274   2.069       .  S
Zn1268     O1270   1.899       .  S
Zn1268     O1273   2.062       .  S
Zn1269     O1277   2.023       .  S
Zn1269     O1281   2.067       .  S
O1271      C1283   1.263       .  A
O1272      C1284   1.278       .  A
O1273      C1285   1.278       .  A
O1274      C1283   1.278       .  A
O1275      C1285   1.264       .  A
O1276      C1284   1.277       .  A
O1277      C1286   1.278       .  A
O1278      C1287   1.278       .  A
O1279      C1286   1.277       .  A
O1280      C1287   1.278       .  A
O1281      C1288   1.278       .  A
O1282      C1288   1.262   1_545  A
C1283      C1635   1.471       .  S
C1284      C1620   1.432       .  S
C1285      C1622   1.470       .  S
C1286      C1615   1.431       .  S
C1287      C1618   1.434       .  S
C1288      C1645   1.469       .  S
C1289      H1290   1.111       .  S
C1289      C1295   1.552       .  S
C1289      C1294   1.552       .  S
C1289      C1293   1.551       .  S
C1291      H1292   1.113       .  S
C1291      C1297   1.527       .  S
C1291      C1296   1.526       .  S
C1291      C1298   1.527       .  S
C1293      C1296   1.370       .  D
C1293      C1589   1.488       .  S
C1294      C1297   1.373       .  D
C1294      C1596   1.495       .  S
C1295      C1298   1.375       .  D
C1295      C1606   1.497       .  S
C1296      C1582   1.445       .  S
C1297      C1579   1.441       .  S
C1298      C1583   1.444       .  S
C1299      H1300   1.111       .  S
C1299      C1304   1.552       .  S
C1301      H1302   1.113       .  S
C1301      C1307   1.526       .  S
C1303      C1306   1.374       .  D
C1303      C1609   1.497       .  S
C1304      C1307   1.372       .  D
C1304      C1599   1.495       .  S
C1305      C1308   1.370       .  D
C1305      C1586   1.488       .  S
C1306      C1578   1.444       .  S
C1307      C1574   1.438       .  S
C1308      C1576   1.444       .  S
C1309      H1310   1.111       .  S
C1309      C1315   1.551       .  S
C1309      C1314   1.552       .  S
C1309      C1313   1.550       .  S
C1311      H1312   1.112       .  S
C1311      C1317   1.531       .  S
C1311      C1316   1.531       .  S
C1311      C1318   1.530       .  S
C1313      C1316   1.371       .  D
C1313      C1544   1.492       .  S
C1314      C1317   1.375       .  D
C1314      C1554   1.497       .  S
C1315      C1318   1.372       .  D
C1315      C1564   1.492       .  S
C1316      C1538   1.445       .  S
C1317      C1540   1.448       .  S
C1318      C1542   1.448       .  S
C1319      H1320   1.112       .  S
C1319      C1325   1.530       .  S
C1319      C1324   1.530       .  S
C1319      C1323   1.531       .  S
C1321      H1322   1.111       .  S
C1321      C1327   1.551       .  S
C1321      C1326   1.551       .  S
C1321      C1328   1.550       .  S
C1323      C1326   1.375       .  D
C1323      C1653   1.448       .  S
C1324      C1327   1.372       .  D
C1324      C1655   1.447       .  S
C1325      C1328   1.371       .  D
C1325      C1652   1.446       .  S
C1326      C1557   1.497       .  S
C1327      C1567   1.492       .  S
C1328      C1547   1.492       .  S
Zn1329     O1333   1.953       .  S
Zn1329     O1334   2.002       .  S
Zn1329     O1338   2.012       .  S
Zn1329     O1345   1.989       .  S
Zn1330     O1333   1.951       .  S
Zn1330     O1335   2.010       .  S
Zn1330     O1337   1.992       .  S
Zn1330     O1341   1.992       .  S
Zn1331     O1333   1.949       .  S
Zn1331     O1336   2.034       .  S
Zn1331     O1339   2.039       .  S
Zn1331     O1342   2.039       .  S
Zn1332     O1333   1.955       .  S
Zn1332     O1340   2.010       .  S
Zn1332     O1343   1.994       .  S
Zn1332     O1344   1.999       .  S
O1334      C1346   1.271       .  A
O1335      C1347   1.272       .  A
O1336      C1348   1.275       .  A
O1337      C1346   1.269       .  A
O1338      C1348   1.273       .  A
O1339      C1347   1.276       .  A
O1340      C1349   1.272       .  A
O1341      C1350   1.270       .  A
O1342      C1349   1.276       .  A
O1343      C1350   1.269       .  A
O1344      C1351   1.271       .  A
O1345      C1351   1.269       .  A
C1346      C1508   1.474       .  S
C1349      C1541   1.437       .  S
C1350      C1518   1.472       .  S
C1351      C1528   1.472       .  S
Zn1352     O1357   2.064       .  S
Zn1352     O1361   2.022       .  S
Zn1353     O1356   1.838       .  S
Zn1353     O1364   1.952       .  S
Zn1354     O1362   2.064       .  S
Zn1355     O1356   1.903       .  S
Zn1355     O1363   2.028       .  S
Zn1355     O1366   2.067       .  S
O1357      C1369   1.278       .  A
O1358      C1370   1.264   1_455  A
O1359      C1371   1.277       .  A
O1360      C1369   1.263       .  A
O1361      C1371   1.277       .  A
O1362      C1370   1.278       .  A
O1363      C1372   1.278       .  A
O1364      C1373   1.262       .  A
O1365      C1372   1.277       .  A
O1366      C1373   1.278       .  A
O1367      C1374   1.279       .  A
O1368      C1374   1.277       .  A
C1369      C1521   1.468       .  S
C1370      C1511   1.469       .  S
C1371      C1580   1.431       .  S
C1372      C1584   1.434       .  S
C1373      C1531   1.467       .  S
C1374      C1581   1.435       .  S
C1375      H1376   1.111       .  S
C1375      C1381   1.551       .  S
C1375      C1380   1.550       .  S
C1375      C1379   1.553       .  S
C1377      H1378   1.113       .  S
C1377      C1383   1.526       .  S
C1377      C1382   1.526       .  S
C1377      C1384   1.526       .  S
C1379      C1382   1.374       .  D
C1379      C1498   1.494       .  S
C1380      C1383   1.370       .  D
C1380      C1478   1.490       .  S
C1381      C1384   1.374       .  D
C1381      C1488   1.494       .  S
C1382      C1619   1.443       .  S
C1383      C1617   1.444       .  S
C1384      C1616   1.442       .  S
C1385      H1386   1.111   1_655  S
C1385      C1390   1.549       .  S
C1387      H1388   1.112       .  S
C1387      C1393   1.530       .  S
C1389      C1392   1.374       .  D
C1389      C1491   1.494       .  S
C1390      C1393   1.369       .  D
C1390      C1481   1.489       .  S
C1391      C1394   1.372       .  D
C1391      C1501   1.494       .  S
C1392      C1471   1.448       .  S
C1393      C1474   1.446       .  S
C1394      C1475   1.443       .  S
Zn1395     O1399   1.899       .  S
Zn1395     O1400   2.032       .  S
Zn1395     O1404   2.028       .  S
Zn1395     O1411   2.065       .  S
Zn1396     O1399   1.900       .  S
Zn1396     O1401   2.015       .  S
Zn1396     O1403   2.019       .  S
Zn1396     O1407   2.059       .  S
Zn1397     O1399   1.898       .  S
Zn1397     O1402   2.026       .  S
Zn1397     O1405   2.015       .  S
Zn1397     O1408   2.064       .  S
Zn1398     O1399   1.835       .  S
Zn1398     O1406   1.958       .  S
Zn1398     O1409   1.956       .  S
Zn1398     O1410   1.953       .  S
O1400      C1412   1.278       .  A
O1401      C1413   1.277       .  A
O1402      C1414   1.278       .  A
O1403      C1412   1.277       .  A
O1404      C1414   1.278       .  A
O1405      C1413   1.277       .  A
O1406      C1415   1.263       .  A
O1407      C1416   1.277       .  A
O1408      C1415   1.278       .  A
O1409      C1416   1.263       .  A
O1410      C1417   1.262       .  A
O1411      C1417   1.278       .  A
C1412      C1577   1.433       .  S
C1413      C1573   1.427       .  S
C1414      C1575   1.434       .  S
C1415      C1452   1.468       .  S
C1416      C1442   1.469       .  S
C1417      C1462   1.465       .  S
Zn1418     O1422   1.953       .  S
Zn1418     O1423   2.010       .  S
Zn1418     O1427   1.996       .  S
Zn1418     O1434   1.996       .  S
Zn1419     O1422   1.949       .  S
Zn1419     O1424   2.030       .  S
Zn1419     O1426   2.038       .  S
Zn1419     O1430   2.038       .  S
Zn1420     O1422   1.949       .  S
Zn1420     O1425   1.991       .  S
Zn1420     O1428   2.002       .  S
Zn1420     O1431   1.985       .  S
Zn1421     O1422   1.953       .  S
Zn1421     O1429   2.001       .  S
Zn1421     O1432   2.009       .  S
Zn1421     O1433   1.989       .  S
O1423      C1435   1.272       .  A
O1424      C1436   1.275       .  A
O1425      C1437   1.270       .  A
O1426      C1435   1.276       .  A
O1427      C1437   1.269       .  A
O1428      C1436   1.271       .  A
O1429      C1438   1.271       .  A
O1430      C1439   1.276       .  A
O1431      C1438   1.268       .  A
O1432      C1439   1.272       .  A
O1433      C1440   1.269       .  A
O1434      C1440   1.271       .  A
C1435      C1472   1.437       .  S
C1436      C1476   1.432       .  S
C1437      C1445   1.468   1_554  S
C1438      C1455   1.471   1_554  S
C1439      C1473   1.436       .  S
C1440      C1465   1.472   1_554  S
C1441      C1442   1.401       .  A
C1441      C1446   1.394       .  A
C1441      H1447   1.083       .  S
C1442      C1443   1.407       .  A
C1443      C1444   1.397       .  A
C1443      H1448   1.083       .  S
C1444      C1445   1.402       .  A
C1444      H1449   1.083   1_556  S
C1445      C1446   1.406       .  A
C1446      H1450   1.084       .  S
C1451      C1452   1.405       .  A
C1451      H1457   1.083       .  S
C1452      C1453   1.401       .  A
C1453      H1458   1.083   1_565  S
C1454      C1455   1.406       .  A
C1454      H1459   1.083       .  S
C1455      C1456   1.404       .  A
C1456      H1460   1.083   1_556  S
C1461      C1462   1.405       .  A
C1461      H1467   1.083       .  S
C1462      C1463   1.400       .  A
C1463      H1468   1.083       .  S
C1464      C1465   1.407       .  A
C1464      H1469   1.083       .  S
C1465      C1466   1.404   1_655  A
C1466      H1470   1.083   1_556  S
C1471      C1472   1.207       .  T
C1473      C1474   1.206       .  T
C1475      C1476   1.204       .  T
C1477      C1478   1.402       .  A
C1477      C1482   1.401       .  A
C1477      H1483   1.078       .  S
C1478      C1479   1.406       .  A
C1479      C1480   1.401       .  A
C1479      H1484   1.083       .  S
C1480      C1481   1.402       .  A
C1481      C1482   1.405       .  A
C1482      H1486   1.083       .  S
C1487      C1488   1.401       .  A
C1487      C1492   1.400       .  A
C1487      H1493   1.077       .  S
C1488      C1489   1.408       .  A
C1489      C1490   1.400       .  A
C1489      H1494   1.082       .  S
C1490      C1491   1.401       .  A
C1490      H1495   1.078       .  S
C1491      C1492   1.407       .  A
C1492      H1496   1.082       .  S
C1497      C1498   1.402       .  A
C1497      C1502   1.402       .  A
C1497      H1503   1.083       .  S
C1498      C1499   1.409       .  A
C1499      C1500   1.402       .  A
C1499      H1504   1.083       .  S
C1500      C1501   1.401       .  A
C1500      H1505   1.083       .  S
C1501      C1502   1.409       .  A
C1502      H1506   1.083       .  S
C1507      C1508   1.407       .  A
C1507      C1512   1.396       .  A
C1507      H1513   1.083       .  S
C1508      C1509   1.404       .  A
C1509      C1510   1.397       .  A
C1509      H1514   1.083   1_655  S
C1510      C1511   1.405       .  A
C1510      H1515   1.083   1_655  S
C1511      C1512   1.401       .  A
C1512      H1516   1.083       .  S
C1517      C1518   1.403       .  A
C1517      C1522   1.397       .  A
C1517      H1523   1.083       .  S
C1518      C1519   1.407       .  A
C1519      C1520   1.394       .  A
C1519      H1524   1.083       .  S
C1520      C1521   1.400       .  A
C1521      C1522   1.406       .  A
C1522      H1526   1.083       .  S
C1527      C1528   1.404       .  A
C1527      C1532   1.396       .  A
C1527      H1533   1.083       .  S
C1528      C1529   1.407       .  A
C1529      C1530   1.396       .  A
C1529      H1534   1.083       .  S
C1530      C1531   1.401       .  A
C1530      H1535   1.083       .  S
C1531      C1532   1.405       .  A
C1537      C1538   1.206       .  T
C1539      C1540   1.207       .  T
C1541      C1542   1.207       .  T
C1543      C1544   1.403       .  A
C1543      H1549   1.078       .  S
C1544      C1545   1.406       .  A
C1545      H1550   1.083       .  S
C1546      C1547   1.402       .  A
C1546      H1551   1.078       .  S
C1547      C1548   1.406       .  A
C1548      H1552   1.083       .  S
C1553      C1554   1.401       .  A
C1553      H1559   1.078       .  S
C1554      C1555   1.409       .  A
C1555      H1560   1.082       .  S
C1556      C1557   1.401       .  A
C1556      H1561   1.078       .  S
C1557      C1558   1.408       .  A
C1558      H1562   1.082       .  S
C1563      C1564   1.401       .  A
C1563      C1568   1.402       .  A
C1563      H1569   1.083       .  S
C1564      C1565   1.409       .  A
C1565      C1566   1.402       .  A
C1565      H1570   1.083       .  S
C1566      C1567   1.401       .  A
C1566      H1571   1.083       .  S
C1567      C1568   1.409       .  A
C1568      H1572   1.083       .  S
C1573      C1574   1.201       .  T
C1575      C1576   1.205       .  T
C1577      C1578   1.205       .  T
C1579      C1580   1.203       .  T
C1581      C1582   1.205       .  T
C1583      C1584   1.205       .  T
C1585      C1586   1.401       .  A
C1585      C1590   1.401       .  A
C1585      H1591   1.079   1_565  S
C1586      C1587   1.406       .  A
C1587      C1588   1.401       .  A
C1587      H1592   1.083       .  S
C1588      C1589   1.402       .  A
C1588      H1593   1.080       .  S
C1589      C1590   1.406       .  A
C1590      H1594   1.083       .  S
C1595      C1596   1.402       .  A
C1595      C1600   1.403       .  A
C1595      H1601   1.083       .  S
C1596      C1597   1.409       .  A
C1597      C1598   1.403       .  A
C1597      H1602   1.083       .  S
C1598      C1599   1.402       .  A
C1599      C1600   1.410       .  A
C1600      H1604   1.083       .  S
C1605      C1606   1.408       .  A
C1605      C1610   1.400       .  A
C1605      H1611   1.082       .  S
C1606      C1607   1.402       .  A
C1607      C1608   1.401       .  A
C1607      H1612   1.079       .  S
C1608      C1609   1.409       .  A
C1608      H1613   1.082       .  S
C1609      C1610   1.402       .  A
C1610      H1614   1.079       .  S
C1615      C1616   1.204       .  T
C1617      C1618   1.205       .  T
C1619      C1620   1.204       .  T
C1621      C1622   1.406       .  A
C1621      C1626   1.397       .  A
C1621      H1627   1.083       .  S
C1622      C1623   1.402       .  A
C1623      C1624   1.396       .  A
C1623      H1628   1.083       .  S
C1624      C1625   1.407       .  A
C1624      H1629   1.083       .  S
C1625      C1626   1.404       .  A
C1626      H1630   1.083       .  S
C1631      C1632   1.407       .  A
C1631      C1636   1.396       .  A
C1631      H1637   1.083       .  S
C1632      C1633   1.403       .  A
C1633      C1634   1.396       .  A
C1633      H1638   1.083       .  S
C1634      C1635   1.407       .  A
C1634      H1639   1.083       .  S
C1635      C1636   1.401       .  A
C1636      H1640   1.083       .  S
C1641      C1642   1.407       .  A
C1641      C1646   1.397       .  A
C1641      H1647   1.083       .  S
C1642      C1643   1.403       .  A
C1643      C1644   1.395       .  A
C1643      H1648   1.083   1_565  S
C1644      C1645   1.406       .  A
C1645      C1646   1.402       .  A
C1646      H1650   1.083       .  S
C1651      C1652   1.206       .  T
C1653      C1654   1.207       .  T
C1655      C1656   1.206       .  T
