geometry optimzed in LAMMPS
_audit_creation_date              2020-11-30 
_audit_creation_method            'lammps2cif' 
_symmetry_space_group_name_H-M    'P1' 
_symmetry_Int_Tables_number       1 
_symmetry_cell_setting            triclinic 
loop_ 
_symmetry_equiv_pos_as_xyz 
  x,y,z 
_cell_length_a                    56.44970488 
_cell_length_b                    55.718050285434536 
_cell_length_c                    34.6571199436249 
_cell_angle_alpha                 87.96229597327358 
_cell_angle_beta                  88.2417347067295 
_cell_angle_gamma                 119.8790061883271 
loop_ 
_atom_site_label 
_atom_site_type_symbol 
_atom_site_fract_x 
_atom_site_fract_y 
_atom_site_fract_z 
_atom_site_charge 
O1          O  0.81868645  0.32489516  0.10128348    -0.80900
O2          O  0.82756688  0.32792426  0.27765068    -0.65600
O3          O  0.84036595  0.34787468  0.16981579    -1.12200
C4          C  0.86949016  0.28025334  0.16612789     1.06000
O5          O  0.86548409  0.32498689  0.28118649    -0.78800
O6          O  0.89907084  0.33197172  0.22123857    -0.66400
Ni7        Ni  0.81325330  0.34678546  0.13822180     1.34900
C8          C  0.90595216  0.35189625  0.19637271     0.84700
O9          O  0.82122650  0.36528359  0.23185629    -0.79300
O10         O  0.80640651  0.36877118  0.17291662    -0.89600
C11         C  0.84640570  0.32779151  0.29679797     0.84300
O12         O  0.78205771  0.31428677  0.16104712    -0.67800
O13         O  0.86614459  0.27776882  0.20291626    -0.87100
C14         C  0.77604217  0.30385235  0.19555071     0.85100
C15         C  0.80969044  0.37428065  0.20844597     1.06700
H16         H  0.82507228  0.29248850  0.20930382     0.38500
O17         O  0.84186306  0.30998126  0.21025260    -1.09800
O18         O  0.89012356  0.35199969  0.17081914    -0.66400
Ni19       Ni  0.85371931  0.32343379  0.15794297     1.26300
O20         O  0.79372736  0.31080707  0.22099577    -0.66600
O21         O  0.86683423  0.29837800  0.14622686    -0.78900
C22         C  0.84184786  0.33197901  0.08487805     0.84500
O23         O  0.86204833  0.33672912  0.10495003    -0.66100
Ni24       Ni  0.86475387  0.30188172  0.24069090     1.27400
Ni25       Ni  0.83213647  0.33763168  0.22323970     1.26100
H26         H  0.85545365  0.36672835  0.16735151     0.39100
O27         O  0.82366499  0.32808513  0.59977513    -0.80900
O28         O  0.82406627  0.32897049  0.77582683    -0.65600
O29         O  0.84208084  0.35063708  0.66905640    -1.12200
C30         C  0.86697438  0.27981264  0.66855678     1.06000
O31         O  0.86077878  0.32409724  0.78145365    -0.78800
O32         O  0.89573295  0.32793166  0.72471900    -0.66400
Ni33       Ni  0.81687777  0.35028037  0.63456851     1.34900
C34         C  0.90547560  0.34897970  0.70107973     0.84700
O35         O  0.82118677  0.36835304  0.72825739    -0.79300
O36         O  0.80958600  0.37293164  0.66738153    -0.89600
C37         C  0.84206347  0.32793966  0.79608086     0.84300
O38         O  0.78414479  0.31807741  0.65513546    -0.67800
O39         O  0.86021967  0.27543242  0.70470162    -0.87100
C40         C  0.77588747  0.30748520  0.68927475     0.85100
C41         C  0.81208165  0.37887158  0.70285645     1.06700
H42         H  0.82273440  0.29412304  0.70644827     0.38500
O43         O  0.83977291  0.31099278  0.70956171    -1.09800
O44         O  0.89109473  0.35241892  0.67593432    -0.66400
Ni45       Ni  0.85501659  0.32567718  0.65886903     1.26300
O46         O  0.79228055  0.31377289  0.71649237    -0.66600
O47         O  0.86744928  0.29984221  0.64883728    -0.78900
C48         C  0.84748314  0.33602681  0.58483685     0.84500
O49         O  0.86665040  0.34051181  0.60689006    -0.66100
Ni50       Ni  0.85957822  0.30017786  0.74204546     1.27400
Ni51       Ni  0.83090696  0.33946815  0.72159742     1.26100
H52         H  0.85749720  0.36932088  0.66779415     0.39100
O53         O  0.52920875  0.17825164  0.10338740    -0.80900
O54         O  0.50919804  0.17331803  0.28195459    -0.65600
O55         O  0.52266595  0.15753347  0.18041271    -1.12200
C56         C  0.42923793  0.13263744  0.16708025     1.06000
O57         O  0.46937182  0.13407879  0.28885810    -0.78800
O58         O  0.44365105  0.09966825  0.23247541    -0.66400
Ni59       Ni  0.55165944  0.18473294  0.14691881     1.34900
C60         C  0.45569644  0.09126144  0.20978336     0.84700
O61         O  0.55396756  0.17758543  0.24494352    -0.79300
O62         O  0.57695011  0.19330516  0.18683014    -0.89600
C63         C  0.49024214  0.15373111  0.30327509     0.84300
O64         O  0.54783107  0.21605553  0.15808592    -0.67800
O65         O  0.42759535  0.13527755  0.20342072    -0.87100
C66         C  0.54155835  0.22323947  0.18935389     0.85100
C67         C  0.57610520  0.18958586  0.22347119     1.06700
H68         H  0.48193413  0.17476782  0.20770774     0.38500
O69         O  0.48205559  0.15772677  0.21336727    -1.09800
O70         O  0.47459212  0.10732785  0.18451897    -0.66400
Ni71       Ni  0.48647841  0.14524144  0.16495111     1.26300
O72         O  0.53018368  0.20621442  0.21861899    -0.66600
O73         O  0.45018725  0.13401743  0.14991928    -0.78900
C74         C  0.51010068  0.15574886  0.09162817     0.84500
O75         O  0.49390990  0.13597441  0.11538268    -0.66100
Ni76       Ni  0.44972449  0.13539036  0.24490485     1.27400
Ni77       Ni  0.51745600  0.16728337  0.23070339     1.26100
H78         H  0.52542162  0.14180291  0.18318210     0.39100
O79         O  0.51739251  0.18295210  0.60480683    -0.80900
O80         O  0.50866613  0.16901340  0.78373758    -0.65600
O81         O  0.51711614  0.15963537  0.67749655    -1.12200
C82         C  0.42243039  0.13342532  0.67520951     1.06000
O83         O  0.46663037  0.13220898  0.79188065    -0.78800
O84         O  0.43945768  0.10003177  0.73399366    -0.66400
Ni85       Ni  0.54314577  0.18954581  0.64411078     1.34900
C86         C  0.45121627  0.09226480  0.70970284     0.84700
O87         O  0.55185320  0.17584307  0.73812419    -0.79300
O88         O  0.57118972  0.19768162  0.67990199    -0.89600
C89         C  0.48910229  0.15017407  0.80516305     0.84300
O90         O  0.53748589  0.21842147  0.66293534    -0.67800
O91         O  0.42249859  0.13635595  0.71162211    -0.87100
C92         C  0.53462332  0.22365872  0.69763405     0.85100
C93         C  0.57278872  0.19054450  0.71474755     1.06700
H94         H  0.47817926  0.17527691  0.71427569     0.38500
O95         O  0.47792048  0.15784967  0.71766416    -1.09800
O96         O  0.46976608  0.10893948  0.68442642    -0.66400
Ni97       Ni  0.47998449  0.14681256  0.66704542     1.26300
O98         O  0.52681873  0.20524408  0.72508938    -0.66600
O99         O  0.44270754  0.13479877  0.65610447    -0.78900
C100        C  0.50028910  0.15966632  0.59226458     0.84500
O101        O  0.48547709  0.13901584  0.61565006    -0.66100
Ni102      Ni  0.44609631  0.13514873  0.75019835     1.27400
Ni103      Ni  0.51426741  0.16609321  0.73014928     1.26100
H104        H  0.52084806  0.14456669  0.67593408     0.39100
O105        O  0.67558105  0.48679296  0.08004242    -0.80900
O106        O  0.67406620  0.48977774  0.25674036    -0.65600
O107        O  0.65329170  0.48497592  0.15348598    -1.12200
C108        C  0.71681380  0.58220112  0.13655803     1.06000
O109        O  0.68654620  0.53410198  0.26491880    -0.78800
O110        O  0.66729060  0.55490061  0.21102977    -0.66400
Ni111      Ni  0.65533831  0.45914204  0.12117162     1.34900
C112        C  0.64871701  0.54514572  0.18681090     0.84700
O113        O  0.63661666  0.44820319  0.21745130    -0.79300
O114        O  0.63471318  0.42980051  0.15961217    -0.89600
C115        C  0.67952666  0.50971467  0.27800754     0.84300
O116        O  0.68847203  0.46108401  0.13730237    -0.67800
O117        O  0.71849436  0.58238068  0.17306333    -0.87100
C118        C  0.69823243  0.46463526  0.17046813     0.85100
C119        C  0.62844335  0.42756652  0.19576977     1.06700
H120        H  0.70893052  0.52451480  0.18211303     0.38500
O121        O  0.69187914  0.52428966  0.18702948    -1.09800
O122        O  0.64994493  0.53255089  0.15702576    -0.66400
Ni123      Ni  0.67695827  0.52269051  0.13753927     1.26300
O124        O  0.69028952  0.47440028  0.19721745    -0.66600
O125        O  0.70151331  0.56024568  0.11988739    -0.78900
C126        C  0.66805039  0.50313760  0.06594919     0.84500
O127        O  0.66208475  0.51740057  0.08782163    -0.66100
Ni128      Ni  0.70114302  0.55582159  0.21679422     1.27400
Ni129      Ni  0.66415766  0.48661692  0.20456889     1.26100
H130        H  0.63460966  0.48120883  0.15435973     0.39100
O131        O  0.66517398  0.47689667  0.58515255    -0.80900
O132        O  0.67551110  0.49282773  0.75635240    -0.65600
O133        O  0.64631169  0.48091956  0.65755782    -1.12200
C134        C  0.70675322  0.57793123  0.62948205     1.06000
O135        O  0.67935943  0.53435587  0.76086809    -0.78800
O136        O  0.65898545  0.55236619  0.70592623    -0.66400
Ni137      Ni  0.64388713  0.45193185  0.62805837     1.34900
C138        C  0.64045099  0.54172738  0.68193793     0.84700
O139        O  0.63603521  0.44733720  0.72486655    -0.79300
O140        O  0.62221227  0.42555557  0.66913567    -0.89600
C141        C  0.67668233  0.51197357  0.77629642     0.84300
O142        O  0.67519722  0.44983674  0.64379949    -0.67800
O143        O  0.70882729  0.57995500  0.66594025    -0.87100
C144        C  0.69079157  0.45937936  0.67165766     0.85100
C145        C  0.62195070  0.42558560  0.70597036     1.06700
H146        H  0.70353252  0.52469827  0.67903385     0.38500
O147        O  0.68587526  0.52304446  0.68449839    -1.09800
O148        O  0.64177304  0.52817230  0.65337263    -0.66400
Ni149      Ni  0.66904762  0.51781255  0.63603486     1.26300
O150        O  0.68874777  0.47547481  0.69496086    -0.66600
O151        O  0.69274572  0.55485990  0.61424281    -0.78900
C152        C  0.65844401  0.49286850  0.56760772     0.84500
O153        O  0.65306706  0.50877885  0.58689019    -0.66100
Ni154      Ni  0.69343760  0.55502204  0.71177819     1.27400
Ni155      Ni  0.66128616  0.48571429  0.70645718     1.26100
H156        H  0.62790945  0.47770245  0.66142065     0.39100
O157        O  0.31530433  0.79663087  0.38220668    -0.80900
O158        O  0.31517907  0.81173107  0.20591920    -0.65600
O159        O  0.33733164  0.82337838  0.30878038    -1.12200
C160        C  0.28070466  0.86098387  0.32947555     1.06000
O161        O  0.29809786  0.84028260  0.19958643    -0.78800
O162        O  0.33177492  0.87871684  0.24800074    -0.66400
Ni163      Ni  0.33772250  0.79487961  0.34032745     1.34900
C164        C  0.34538073  0.88770925  0.27785343     0.84700
O165        O  0.35372837  0.80631923  0.24361487    -0.79300
O166        O  0.36055795  0.79145915  0.30166811    -0.89600
C167        C  0.30514373  0.82373024  0.18594453     0.84300
O168        O  0.30667936  0.76264603  0.32248602    -0.67800
O169        O  0.28689805  0.86900924  0.29391324    -0.87100
C170        C  0.29486972  0.75816860  0.29078632     0.85100
C171        C  0.36486848  0.79573365  0.26505524     1.06700
H172        H  0.28061094  0.80842158  0.27832124     0.38500
O173        O  0.29828263  0.82514256  0.27572300    -1.09800
O174        O  0.33838829  0.87344256  0.31051276    -0.66400
Ni175      Ni  0.31192849  0.83396737  0.32578939     1.26300
O176        O  0.30000320  0.77753078  0.26569022    -0.66600
O177        O  0.28501830  0.84249949  0.34394620    -0.78900
C178        C  0.31928818  0.81876681  0.39735311     0.84500
O179        O  0.32539260  0.84009471  0.37589699    -0.66100
Ni180      Ni  0.29372752  0.85300134  0.24855270     1.27400
Ni181      Ni  0.32607951  0.81637093  0.25771617     1.26100
H182        H  0.35555643  0.83933400  0.30776888     0.39100
O183        O  0.31301452  0.79917169  0.88277292    -0.80900
O184        O  0.31700214  0.81419914  0.70610502    -0.65600
O185        O  0.33648689  0.82579645  0.81000231    -1.12200
C186        C  0.27873164  0.86241771  0.82617385     1.06000
O187        O  0.29977525  0.84251989  0.69755924    -0.78800
O188        O  0.33209269  0.88100738  0.74745689    -0.66400
Ni189      Ni  0.33611377  0.79726187  0.84232598     1.34900
C190        C  0.34497438  0.88982182  0.77795320     0.84700
O191        O  0.35440014  0.80893808  0.74627121    -0.79300
O192        O  0.35953295  0.79364801  0.80504975    -0.89600
C193        C  0.30734972  0.82602859  0.68508025     0.84300
O194        O  0.30507294  0.76532941  0.82401967    -0.67800
O195        O  0.28588752  0.87082375  0.79083027    -0.87100
C196        C  0.29354212  0.76075788  0.79206349     0.85100
C197        C  0.36489918  0.79821853  0.76863843     1.06700
H198        H  0.28053836  0.81065470  0.77643039     0.38500
O199        O  0.29818670  0.82736034  0.77442105    -1.09800
O200        O  0.33712445  0.87554363  0.81055278    -0.66400
Ni201      Ni  0.31057963  0.83611123  0.82514089     1.26300
O202        O  0.29989022  0.77980280  0.76589493    -0.66600
O203        O  0.28305444  0.84414054  0.84128054    -0.78900
C204        C  0.31671718  0.82127167  0.89759471     0.84500
O205        O  0.32290604  0.84250743  0.87593175    -0.66100
Ni206      Ni  0.29413515  0.85515338  0.74612524     1.27400
Ni207      Ni  0.32641464  0.81873627  0.75842035     1.26100
H208        H  0.35463332  0.84176139  0.80969044     0.39100
O209        O  0.17934982  0.50203631  0.37056468    -0.80900
O210        O  0.17628363  0.49355643  0.20001546    -0.65600
O211        O  0.15606132  0.50102073  0.30214967    -1.12200
C212        C  0.12035012  0.40410834  0.32174314     1.06000
O213        O  0.13957041  0.45197516  0.19354949    -0.78800
O214        O  0.10047997  0.43652984  0.24927089    -0.66400
Ni215      Ni  0.18115025  0.52866802  0.33277606     1.34900
C216        C  0.09241347  0.44505564  0.27742047     0.84700
O217        O  0.18083661  0.53769128  0.23760164    -0.79300
O218        O  0.18404983  0.55609942  0.29589560    -0.89600
C219        C  0.16069667  0.47383173  0.17960045     0.84300
O220        O  0.21514126  0.53357557  0.31210031    -0.67800
O221        O  0.11786670  0.40334757  0.28529978    -0.87100
C222        C  0.22165666  0.52370236  0.28395551     0.85100
C223        C  0.18610715  0.55806612  0.25900965     1.06700
H224        H  0.17047254  0.45804371  0.27228346     0.38500
O225        O  0.15472568  0.46034965  0.26960010    -1.09800
O226        O  0.10594522  0.45425995  0.30774187    -0.66400
Ni227      Ni  0.14319075  0.46385637  0.32056800     1.26300
O228        O  0.20418184  0.50745910  0.26148604    -0.66600
O229        O  0.13108973  0.42663373  0.33871633    -0.78900
C230        C  0.15729494  0.48592939  0.39011509     0.84500
O231        O  0.13597675  0.47067564  0.37228740    -0.66100
Ni232      Ni  0.12999007  0.42994227  0.24127426     1.27400
Ni233      Ni  0.16739690  0.49845625  0.25154992     1.26100
H234        H  0.14063980  0.50397309  0.30033781     0.39100
O235        O  0.18321944  0.49806613  0.87382353    -0.80900
O236        O  0.17422551  0.49887492  0.69917645    -0.65600
O237        O  0.15943883  0.50020854  0.80614764    -1.12200
C238        C  0.12296011  0.40417440  0.81794857     1.06000
O239        O  0.15084344  0.45317101  0.69120337    -0.78800
O240        O  0.10985418  0.44410798  0.74259826    -0.66400
Ni241      Ni  0.18631894  0.52620515  0.83722520     1.34900
C242        C  0.09890693  0.44692056  0.77339555     0.84700
O243        O  0.17684846  0.53894255  0.74410624    -0.79300
O244        O  0.19058119  0.55575870  0.80284618    -0.89600
C245        C  0.16529700  0.47820460  0.67814092     0.84300
O246        O  0.21852259  0.52813218  0.81436147    -0.67800
O247        O  0.11721565  0.40526642  0.78299395    -0.87100
C248        C  0.22457308  0.52375711  0.78078265     0.85100
C249        C  0.18623067  0.55874757  0.76754441     1.06700
H250        H  0.17737743  0.46232682  0.76775926     0.38500
O251        O  0.16045338  0.46268835  0.76731895    -1.09800
O252        O  0.11047728  0.45134531  0.80606074    -0.66400
Ni253      Ni  0.14861343  0.46286471  0.81939214     1.26300
O254        O  0.20683623  0.51338367  0.75565000    -0.66600
O255        O  0.13962386  0.42588707  0.83370023    -0.78900
C256        C  0.16076737  0.48038677  0.89134408     0.84500
O257        O  0.14004994  0.46604511  0.87198420    -0.66100
Ni258      Ni  0.13562468  0.43202575  0.73915912     1.27400
Ni259      Ni  0.16823522  0.50046446  0.75323665     1.26100
H260        H  0.14364433  0.50261028  0.80843296     0.39100
O261        O  0.48051032  0.65937879  0.36521066    -0.80900
O262        O  0.48703821  0.66512707  0.18790838    -0.65600
O263        O  0.47973965  0.63964788  0.29337416    -1.12200
C264        C  0.57429246  0.70898145  0.29521669     1.06000
O265        O  0.52803542  0.66874983  0.18034287    -0.78800
O266        O  0.55669848  0.66176162  0.23522364    -0.66400
Ni267      Ni  0.45357303  0.63915803  0.32892934     1.34900
C268        C  0.54531973  0.64077012  0.25899912     0.84700
O269        O  0.44406931  0.62479515  0.23378671    -0.79300
O270        O  0.42536899  0.61845719  0.29478925    -0.89600
C271        C  0.50682909  0.66731855  0.16637222     0.84300
O272        O  0.45427738  0.67254352  0.31179768    -0.67800
O273        O  0.57359326  0.71374823  0.25903709    -0.87100
C274        C  0.45768488  0.68424091  0.27842786     0.85100
C275        C  0.42357958  0.61381915  0.25883552     1.06700
H276        H  0.51820540  0.69709409  0.25873256     0.38500
O277        O  0.51828836  0.68009336  0.25440788    -1.09800
O278        O  0.52714453  0.63732854  0.28514853    -0.66400
Ni279      Ni  0.51685145  0.66377850  0.30430170     1.26300
O280        O  0.46867603  0.67874871  0.24992847    -0.66600
O281        O  0.55429336  0.68901001  0.31487522    -0.78900
C282        C  0.49600172  0.65108223  0.37892102     0.84500
O283        O  0.51164484  0.64734739  0.35576632    -0.66100
Ni284      Ni  0.54950079  0.69079822  0.22086727     1.27400
Ni285      Ni  0.48173390  0.65279289  0.24157287     1.26100
H286        H  0.47652951  0.62095002  0.29308646     0.39100
O287        O  0.47805374  0.66045692  0.86396657    -0.80900
O288        O  0.48853995  0.67021032  0.68631090    -0.65600
O289        O  0.48127687  0.64328788  0.79054009    -1.12200
C290        C  0.57507741  0.71399018  0.79638198     1.06000
O291        O  0.53139106  0.67865998  0.67630745    -0.78800
O292        O  0.55735303  0.66740116  0.73158463    -0.66400
Ni293      Ni  0.45304793  0.63926168  0.82567053     1.34900
C294        C  0.54730334  0.64697011  0.75640836     0.84700
O295        O  0.44644579  0.62870699  0.72968136    -0.79300
O296        O  0.42633034  0.61740713  0.79018568    -0.89600
C297        C  0.50817487  0.67291143  0.66412579     0.84300
O298        O  0.45031245  0.67094339  0.80901701    -0.67800
O299        O  0.57554712  0.71862214  0.75990708    -0.87100
C300        C  0.45653679  0.68523386  0.77710503     0.85100
C301        C  0.42557531  0.61525258  0.75361557     1.06700
H302        H  0.51884776  0.70187260  0.75736564     0.38500
O303        O  0.51959428  0.68523785  0.75283560    -1.09800
O304        O  0.53009950  0.64373316  0.78406985    -0.66400
Ni305      Ni  0.51767238  0.66869202  0.80280161     1.26300
O306        O  0.46978370  0.68213530  0.74920422    -0.66600
O307        O  0.55420130  0.69468811  0.81519463    -0.78900
C308        C  0.49653944  0.65620492  0.87724014     0.84500
O309        O  0.51219938  0.65241970  0.85417507    -0.66100
Ni310      Ni  0.55164066  0.69773724  0.71987654     1.27400
Ni311      Ni  0.48353452  0.65718220  0.73920771     1.26100
H312        H  0.47940841  0.62514861  0.78928842     0.39100
O313        O  0.16854755  0.00189689  0.09498397    -0.80900
O314        O  0.16915145  0.99846431  0.91593501    -0.65600
O315        O  0.16387685  0.97957638  0.02364247    -1.12200
C316        C  0.25944909  0.04547594  0.01858571     1.06000
O317        O  0.21159117  0.00559399  0.90634162    -0.78800
O318        O  0.23985197  0.99920306  0.96219469    -0.66400
Ni319      Ni  0.14071904  0.98476908  0.05835593     1.34900
C320        C  0.22605269  0.97698356  0.98331673     0.84700
O321        O  0.12671004  0.96197553  0.96643307    -0.79300
O322        O  0.11112477  0.96684196  0.02492797    -0.89600
C323        C  0.18828190  0.99943091  0.89420045     0.84300
O324        O  0.14876795  0.02070956  0.03800193    -0.67800
O325        O  0.25745468  0.05198790  0.98371255    -0.87100
C326        C  0.14939200  0.02862664  0.00293567     0.85100
C327        C  0.10718997  0.95755327  0.99112509     1.06700
H328        H  0.20217538  0.03450673  0.98460897     0.38500
O329        O  0.20212620  0.01743188  0.98062160    -1.09800
O330        O  0.20846469  0.97406823  0.01008516    -0.66400
Ni331      Ni  0.20169839  0.00230727  0.03085209     1.26300
O332        O  0.15370049  0.01677329  0.97521403    -0.66600
O333        O  0.23988300  0.02528834  0.03826434    -0.78900
C334        C  0.18385404  0.99270662  0.10671432     0.84500
O335        O  0.19771425  0.98717744  0.08261273    -0.66100
Ni336      Ni  0.23303949  0.02823535  0.94648686     1.27400
Ni337      Ni  0.16508828  0.98957572  0.97063220     1.26100
H338        H  0.15900560  0.96031628  0.02628927     0.39100
O339        O  0.15611853  0.98666891  0.59605485    -0.80900
O340        O  0.16691795  0.99499834  0.41662598    -0.65600
O341        O  0.15818994  0.96961522  0.52215989    -1.12200
C342        C  0.25189847  0.04043096  0.52749014     1.06000
O343        O  0.20982392  0.00324521  0.40922444    -0.78800
O344        O  0.23692696  0.99571221  0.46595222    -0.66400
Ni345      Ni  0.13091165  0.96857806  0.55632484     1.34900
C346        C  0.22384147  0.97315030  0.48654197     0.84700
O347        O  0.12431377  0.95312798  0.46090280    -0.79300
O348        O  0.10382097  0.94897093  0.52001638    -0.89600
C349        C  0.18730793  0.99841902  0.39544905     0.84300
O350        O  0.13308256  0.00293896  0.53908577    -0.67800
O351        O  0.25154613  0.04703105  0.49197903    -0.87100
C352        C  0.13640471  0.01357462  0.50485487     0.85100
C353        C  0.10314341  0.94304735  0.48465239     1.06700
H354        H  0.19529206  0.02748477  0.48875000     0.38500
O355        O  0.19662324  0.01119088  0.48411647    -1.09800
O356        O  0.20546124  0.96887199  0.51279121    -0.66400
Ni357      Ni  0.19485293  0.99441632  0.53367625     1.26300
O358        O  0.14638994  0.00656160  0.47704502    -0.66600
O359        O  0.23190471  0.01950985  0.54546616    -0.78900
C360        C  0.17364006  0.98042728  0.60802734     0.84500
O361        O  0.18957898  0.97753117  0.58434128    -0.66100
Ni362      Ni  0.22911206  0.02439840  0.45205582     1.27400
Ni363      Ni  0.16111997  0.98240163  0.47004355     1.26100
H364        H  0.15532926  0.95100736  0.52245277     0.39100
O365        O  0.99772151  0.13630066  0.08279444    -0.80900
O366        O  0.00230715  0.14424329  0.90357801    -0.65600
O367        O  0.01968458  0.15700139  0.00822400    -1.12200
C368        C  0.95177734  0.18456050  0.01438153     1.06000
O369        O  0.99336653  0.17874113  0.89468765    -0.78800
O370        O  0.99874057  0.21294204  0.95035825    -0.66400
Ni371      Ni  0.01699386  0.12849615  0.04252030     1.34900
C372        C  0.01946923  0.22194676  0.97077898     0.84700
O373        O  0.04004682  0.14118803  0.94726259    -0.79300
O374        O  0.03781654  0.12031993  0.00564296    -0.89600
C375        C  0.00029971  0.16184846  0.88173872     0.84300
O376        O  0.98307356  0.09832368  0.02666311    -0.67800
O377        O  0.94654430  0.17749834  0.97966280    -0.87100
C378        C  0.97512793  0.09213428  0.99264906     0.85100
C379        C  0.04747870  0.12808522  0.97071253     1.06700
H380        H  0.96505622  0.13884740  0.97668686     0.38500
O381        O  0.98154789  0.15645894  0.97098587    -1.09800
O382        O  0.02240795  0.20692877  0.99700093    -0.66400
Ni383      Ni  0.99538133  0.17027564  0.01970152     1.26300
O384        O  0.98558871  0.10978222  0.96406992    -0.66600
O385        O  0.97107030  0.18405046  0.03162989    -0.78900
C386        C  0.00424981  0.16035952  0.09379070     0.84500
O387        O  0.00919139  0.18020575  0.06953929    -0.66100
Ni388      Ni  0.97057823  0.17703777  0.93872632     1.27400
Ni389      Ni  0.01063897  0.14907659  0.95657050     1.26100
H390        H  0.03828828  0.17223615  0.00811563     0.39100
O391        O  0.00062644  0.13873472  0.58543138    -0.80900
O392        O  0.99543369  0.13952904  0.40545506    -0.65600
O393        O  0.01831526  0.15545476  0.50822433    -1.12200
C394        C  0.95170343  0.18483315  0.51883476     1.06000
O395        O  0.98839724  0.17533947  0.39754672    -0.78800
O396        O  0.99634278  0.21124139  0.45138266    -0.66400
Ni397      Ni  0.01557726  0.12744745  0.54368386     1.34900
C398        C  0.01791364  0.22057283  0.47000360     0.84700
O399        O  0.03395843  0.13508566  0.44666356    -0.79300
O400        O  0.03168809  0.11498529  0.50558681    -0.89600
C401        C  0.99315113  0.15715955  0.38381941     0.84300
O402        O  0.97956272  0.09889237  0.53231896    -0.67800
O403        O  0.94528619  0.17705083  0.48467506    -0.87100
C404        C  0.97097647  0.09063307  0.49918465     0.85100
C405        C  0.03966144  0.12031249  0.46986511     1.06700
H406        H  0.96244292  0.13781761  0.48174962     0.38500
O407        O  0.97903657  0.15494650  0.47424029    -1.09800
O408        O  0.02188222  0.20591168  0.49552510    -0.66400
Ni409      Ni  0.99533010  0.17020255  0.52113616     1.26300
O410        O  0.98060164  0.10670561  0.46883189    -0.66600
O411        O  0.97182834  0.18482655  0.53447487    -0.78900
C412        C  0.00880610  0.16353445  0.59441042     0.84500
O413        O  0.01194841  0.18213752  0.56909956    -0.66100
Ni414      Ni  0.96741131  0.17511299  0.44248684     1.27400
Ni415      Ni  0.00644098  0.14562704  0.45772654     1.26100
H416        H  0.03717753  0.17022690  0.50623654     0.39100
O417        O  0.84131170  0.83931425  0.85733193    -0.80900
O418        O  0.84258870  0.84183919  0.03526810    -0.65600
O419        O  0.84587551  0.82278340  0.93153192    -1.12200
C420        C  0.75065645  0.79499897  0.93571103     1.06000
O421        O  0.80105107  0.80530967  0.04743593    -0.78800
O422        O  0.77043568  0.76880986  0.99738823    -0.66400
Ni423      Ni  0.86975755  0.84931385  0.89300089     1.34900
C424        C  0.78292996  0.75925097  0.97776640     0.84700
O425        O  0.88404670  0.84444005  0.98793733    -0.79300
O426        O  0.89948295  0.85979571  0.92598538    -0.89600
C427        C  0.82265247  0.82568193  0.05878428     0.84300
O428        O  0.86655893  0.88079687  0.90710612    -0.67800
O429        O  0.75339255  0.80394226  0.96957621    -0.87100
C430        C  0.86607433  0.88880255  0.94085570     0.85100
C431        C  0.90357779  0.85719354  0.96155634     1.06700
H432        H  0.80919104  0.84189281  0.96459037     0.38500
O433        O  0.80883109  0.82474199  0.97138197    -1.09800
O434        O  0.80018952  0.77321190  0.94956388    -0.66400
Ni435      Ni  0.80806652  0.80838165  0.92394884     1.26300
O436        O  0.85864756  0.87246429  0.97080183    -0.66600
O437        O  0.76973984  0.79391393  0.91668859    -0.78900
C438        C  0.82548288  0.81455246  0.84819431     0.84500
O439        O  0.81103635  0.79569624  0.87434508    -0.66100
Ni440      Ni  0.77849438  0.80546298  0.00731136     1.27400
Ni441      Ni  0.84577146  0.83387638  0.98248906     1.26100
H442        H  0.84979570  0.80775423  0.93240016     0.39100
O443        O  0.84734402  0.84444697  0.36079270    -0.80900
O444        O  0.83967587  0.83729441  0.53760712    -0.65600
O445        O  0.84664112  0.82194362  0.43338400    -1.12200
C446        C  0.75183173  0.79467336  0.43061650     1.06000
O447        O  0.79784299  0.80040889  0.54740070    -0.78800
O448        O  0.77052477  0.76570241  0.49334096    -0.66400
Ni449      Ni  0.87365370  0.84806614  0.39740668     1.34900
C450        C  0.78263327  0.75703853  0.47123180     0.84700
O451        O  0.88205953  0.84024066  0.49299258    -0.79300
O452        O  0.90115493  0.85228439  0.43179433    -0.89600
C453        C  0.82037195  0.81878233  0.55990620     0.84300
O454        O  0.87566168  0.88145374  0.41381303    -0.67800
O455        O  0.75250547  0.80023137  0.46611115    -0.87100
C456        C  0.86984078  0.88815005  0.44588543     0.85100
C457        C  0.90244125  0.84853002  0.46811381     1.06700
H458        H  0.80858421  0.84007320  0.46647159     0.38500
O459        O  0.80824309  0.82274427  0.47157877    -1.09800
O460        O  0.79982839  0.77214929  0.44341837    -0.66400
Ni461      Ni  0.80973676  0.80935282  0.42229827     1.26300
O462        O  0.85776190  0.87058518  0.47433649    -0.66600
O463        O  0.77230177  0.79649437  0.41145514    -0.78900
C464        C  0.82970678  0.82156985  0.34780161     0.84500
O465        O  0.81506882  0.80058117  0.37100083    -0.66100
Ni466      Ni  0.77676795  0.80140887  0.50526124     1.27400
Ni467      Ni  0.84465716  0.83142483  0.48459745     1.26100
H468        H  0.84939888  0.80615384  0.43463522     0.39100
C469        C  0.82438378  0.80906006  0.80668870    -0.12000
C470        C  0.79966422  0.79475946  0.78795956     0.03500
C471        C  0.80024147  0.79438007  0.74747459    -0.12500
C472        C  0.82517463  0.80805677  0.72528787     0.18400
C473        C  0.84983018  0.82118951  0.74415393    -0.09500
C474        C  0.84926587  0.82165202  0.78439455    -0.02500
H475        H  0.78113713  0.78442395  0.73314229     0.04900
C476        C  0.82512501  0.81065418  0.68264044     0.20300
H477        H  0.86845537  0.83260893  0.79835995     0.10100
C478        C  0.83392697  0.83689492  0.66443947    -0.15900
C479        C  0.83361908  0.84028229  0.62428984     0.03100
C480        C  0.82398710  0.81703634  0.60170138    -0.11200
C481        C  0.81542664  0.79082329  0.61993714    -0.01200
C482        C  0.81611051  0.78753096  0.66000763    -0.06400
H483        H  0.84071164  0.85478526  0.68169612     0.06100
H484        H  0.80809081  0.77277003  0.60288463     0.09500
Br485      Br  0.88478634  0.83922708  0.71609795    -0.06100
Br486      Br  0.76468122  0.77816775  0.81555787    -0.03000
Br487      Br  0.84458938  0.87664574  0.60238317    -0.00200
Br488      Br  0.80513593  0.75126567  0.68238808    -0.04600
C489        C  0.82461086  0.82888541  0.10078561    -0.12000
C490        C  0.80174529  0.82479545  0.12405996     0.03500
C491        C  0.80253062  0.82399316  0.16426451    -0.12500
C492        C  0.82583506  0.82730993  0.18190983     0.18400
C493        C  0.84911431  0.83262568  0.15888110    -0.09500
C494        C  0.84842837  0.83348712  0.11850142    -0.02500
H495        H  0.78480516  0.82055226  0.18189871     0.04900
C496        C  0.82543215  0.82531593  0.22444894     0.20300
H497        H  0.86612145  0.83669731  0.10102047     0.10100
C498        C  0.81922046  0.80012819  0.24376148    -0.15900
C499        C  0.81928642  0.79782726  0.28417869     0.03100
C500        C  0.82577324  0.82114445  0.30573215    -0.11200
C501        C  0.83115854  0.84606877  0.28605881    -0.01200
C502        C  0.83093977  0.84824456  0.24587805    -0.06400
H503        H  0.81474809  0.78234111  0.22723834     0.06100
H504        H  0.83598839  0.86419788  0.30199284     0.09500
Br505      Br  0.88198195  0.83838868  0.18153640    -0.06100
Br506      Br  0.76909962  0.82092005  0.10260160    -0.03000
Br507      Br  0.81234632  0.76308375  0.30771058    -0.00200
Br508      Br  0.83908269  0.88314768  0.22131839    -0.04600
C509        C  0.87938732  0.91814623  0.45084129    -0.12000
C510        C  0.86687985  0.92735980  0.47805785     0.03500
C511        C  0.87903784  0.95569919  0.48492355    -0.12500
C512        C  0.90340361  0.97542725  0.46474243     0.18400
C513        C  0.91528532  0.96650572  0.43648770    -0.09500
C514        C  0.90327092  0.93825819  0.42966313    -0.02500
H515        H  0.86961391  0.96235992  0.50653177     0.04900
C516        C  0.91755801  0.00473295  0.47584620     0.20300
H517        H  0.91344202  0.93192546  0.40876220     0.10100
C518        C  0.93259660  0.01143740  0.50910540    -0.15900
C519        C  0.94892046  0.03906880  0.51856995     0.03100
C520        C  0.95028886  0.06091482  0.49454919    -0.11200
C521        C  0.93415512  0.05390933  0.46205720    -0.01200
C522        C  0.91790259  0.02620397  0.45270945    -0.06400
H523        H  0.93257136  0.99506364  0.52697315     0.06100
H524        H  0.93477758  0.07012622  0.44310398     0.09500
Br525      Br  0.94901775  0.99197323  0.40833417    -0.06100
Br526      Br  0.83280189  0.90260927  0.50588240    -0.03000
Br527      Br  0.97084520  0.04512051  0.56241309    -0.00200
Br528      Br  0.89705513  0.01865279  0.40755439    -0.04600
C529        C  0.00714778  0.16392745  0.83974913    -0.12000
C530        C  0.00028738  0.14042004  0.81835248     0.03500
C531        C  0.00490099  0.14355762  0.77808542    -0.12500
C532        C  0.01644189  0.16978711  0.75866492     0.18400
C533        C  0.02454040  0.19332339  0.78005279    -0.09500
C534        C  0.01980246  0.19027989  0.82019689    -0.02500
H535        H  0.99847998  0.12532922  0.76165354     0.04900
C536        C  0.01713007  0.17174561  0.71602854     0.20300
H537        H  0.02573949  0.20862506  0.83617972     0.10100
C538        C  0.99726270  0.17565380  0.69808211    -0.15900
C539        C  0.99512954  0.17453344  0.65801729     0.03100
C540        C  0.01318991  0.16960783  0.63533240    -0.11200
C541        C  0.03358952  0.16651822  0.65318372    -0.01200
C542        C  0.03574680  0.16768665  0.69326833    -0.06400
H543        H  0.98266443  0.17847055  0.71552633     0.06100
H544        H  0.04741956  0.16244800  0.63596812     0.09500
Br545      Br  0.04187942  0.22992455  0.75546607    -0.06100
Br546      Br  0.98234996  0.10335333  0.84163523    -0.03000
Br547      Br  0.96552435  0.17690463  0.63627954    -0.00200
Br548      Br  0.06400949  0.16322076  0.71585414    -0.04600
C549        C  0.00465665  0.16425880  0.13546046    -0.12000
C550        C  0.98233074  0.16337982  0.15602985     0.03500
C551        C  0.98171777  0.16313294  0.19649056    -0.12500
C552        C  0.00327713  0.16395668  0.21667513     0.18400
C553        C  0.02605050  0.16594300  0.19595142    -0.09500
C554        C  0.02647345  0.16577110  0.15560956    -0.02500
H555        H  0.96421734  0.16183529  0.21228868     0.04900
C556        C  0.00157176  0.16232243  0.25936127     0.20300
H557        H  0.04369776  0.16640277  0.13992590     0.10100
C558        C  0.99269283  0.13675195  0.27961957    -0.15900
C559        C  0.99045738  0.13443745  0.32018175     0.03100
C560        C  0.99713108  0.15813885  0.34107855    -0.11200
C561        C  0.00655947  0.18379766  0.32033565    -0.01200
C562        C  0.00881278  0.18599890  0.27998372    -0.06400
H563        H  0.98717051  0.11845020  0.26373278     0.06100
H564        H  0.01214795  0.20237965  0.33557260     0.09500
Br565      Br  0.05690349  0.16891449  0.22173973    -0.06100
Br566      Br  0.95179291  0.16112079  0.13008796    -0.03000
Br567      Br  0.97668425  0.09816139  0.34478159    -0.00200
Br568      Br  0.02204795  0.22178340  0.25414028    -0.04600
C569        C  0.87772427  0.91877033  0.94721442    -0.12000
C570        C  0.87260609  0.93700864  0.92446647     0.03500
C571        C  0.88574349  0.96540980  0.93181695    -0.12500
C572        C  0.90472743  0.97622046  0.96088702     0.18400
C573        C  0.90981919  0.95779910  0.98327574    -0.09500
C574        C  0.89612530  0.92956056  0.97673624    -0.02500
H575        H  0.88134783  0.97915286  0.91452510     0.04900
C576        C  0.91975937  0.00658881  0.96728029     0.20300
H577        H  0.90083998  0.91601280  0.99397336     0.10100
C578        C  0.91824194  0.01572475  0.00413423    -0.15900
C579        C  0.93540396  0.04337876  0.01319224     0.03100
C580        C  0.95415803  0.06301030  0.98460671    -0.11200
C581        C  0.95415146  0.05409614  0.94699087    -0.01200
C582        C  0.93754750  0.02634387  0.93831668    -0.06400
H583        H  0.90430780  0.00091374  0.02655838     0.06100
H584        H  0.96818997  0.06852669  0.92435642     0.09500
Br585      Br  0.93691199  0.97014823  0.02132990    -0.06100
Br586      Br  0.84729452  0.92397236  0.88422710    -0.03000
Br587      Br  0.93201940  0.05258253  0.06514705    -0.00200
Br588      Br  0.94193931  0.01629385  0.88726753    -0.04600
C589        C  0.07548708  0.92384613  0.47242163    -0.12000
C590        C  0.06116472  0.89641372  0.48876980     0.03500
C591        C  0.03248241  0.88141086  0.49028587    -0.12500
C592        C  0.01759313  0.89341243  0.47575767     0.18400
C593        C  0.03195444  0.92021880  0.45725486    -0.09500
C594        C  0.06064693  0.93519582  0.45577147    -0.02500
H595        H  0.02175120  0.86070874  0.50411006     0.04900
C596        C  0.98719188  0.87799312  0.48026745     0.20300
H597        H  0.07129507  0.95651381  0.44412930     0.10100
C598        C  0.97361791  0.88779723  0.50420101    -0.15900
C599        C  0.94509446  0.87635888  0.50414300     0.03100
C600        C  0.92975971  0.85466773  0.48001892    -0.11200
C601        C  0.94316247  0.84343708  0.45871016    -0.01200
C602        C  0.97154571  0.85483780  0.45869407    -0.06400
H603        H  0.98543213  0.90541213  0.52131953     0.06100
H604        H  0.93169104  0.82693069  0.43970834     0.09500
Br605      Br  0.01322185  0.93764099  0.43485529    -0.06100
Br606      Br  0.08011251  0.87952293  0.51203615    -0.03000
Br607      Br  0.92854781  0.89325228  0.53350880    -0.00200
Br608      Br  0.98825761  0.84002990  0.42534554    -0.04600
C609        C  0.05557102  0.10723938  0.45701157    -0.12000
C610        C  0.08440965  0.12225660  0.45469618     0.03500
C611        C  0.09926450  0.10827632  0.45893410    -0.12500
C612        C  0.08570996  0.07930954  0.46562921     0.18400
C613        C  0.05693842  0.06419769  0.46563063    -0.09500
C614        C  0.04221536  0.07813762  0.46114941    -0.02500
H615        H  0.12138952  0.12012586  0.45868645     0.04900
C616        C  0.10145759  0.06509690  0.47465085     0.20300
H617        H  0.02006079  0.06631063  0.46435956     0.10100
C618        C  0.11022080  0.06513302  0.51220260    -0.15900
C619        C  0.12263168  0.04950288  0.52270489     0.03100
C620        C  0.12642892  0.03332145  0.49527449    -0.11200
C621        C  0.11857683  0.03441861  0.45725983    -0.01200
C622        C  0.10625751  0.04999393  0.44694810    -0.06400
H623        H  0.10686815  0.07694226  0.53369093     0.06100
H624        H  0.12114604  0.02230886  0.43547091     0.09500
Br625      Br  0.03669231  0.02470643  0.47582489    -0.06100
Br626      Br  0.10411391  0.16197654  0.45012936    -0.03000
Br627      Br  0.13452167  0.05182859  0.57442888    -0.00200
Br628      Br  0.09568232  0.04952467  0.39478157    -0.04600
C629        C  0.17646445  0.97896538  0.64999710    -0.12000
C630        C  0.15337563  0.96241062  0.67517755     0.03500
C631        C  0.15526316  0.96496504  0.71509516    -0.12500
C632        C  0.18001302  0.98377301  0.73048952     0.18400
C633        C  0.20350244  0.99921235  0.70553249    -0.09500
C634        C  0.20160983  0.99672416  0.66549658    -0.02500
H635        H  0.13729601  0.95247588  0.73419713     0.04900
C636        C  0.18087347  0.98696035  0.77264761     0.20300
H637        H  0.21947614  0.00959329  0.64638935     0.10100
C638        C  0.19243089  0.97451461  0.79512089    -0.15900
C639        C  0.19409195  0.97751698  0.83497001     0.03100
C640        C  0.18391415  0.99318559  0.85308104    -0.11200
C641        C  0.17153592  0.00490245  0.83066073    -0.01200
C642        C  0.17012376  0.00203756  0.79065862    -0.06400
H643        H  0.20033257  0.96252377  0.78150890     0.06100
H644        H  0.16390445  0.01720139  0.84401326     0.09500
Br645      Br  0.23811931  0.02496794  0.72478249    -0.06100
Br646      Br  0.11900286  0.93557154  0.65632473    -0.03000
Br647      Br  0.20972684  0.95893512  0.86314094    -0.00200
Br648      Br  0.15464462  0.02020665  0.76140673    -0.04600
C649        C  0.18524399  0.98952390  0.14886538    -0.12000
C650        C  0.21003865  0.00263801  0.16760046     0.03500
C651        C  0.20956843  0.00228303  0.20810743    -0.12500
C652        C  0.18464152  0.98921657  0.23027138     0.18400
C653        C  0.15995380  0.97568629  0.21156479    -0.09500
C654        C  0.16041781  0.97593263  0.17125154    -0.02500
H655        H  0.22865346  0.01301936  0.22235503     0.04900
C656        C  0.18464117  0.99089607  0.27272716     0.20300
H657        H  0.14118930  0.96599933  0.15719815     0.10100
C658        C  0.17696318  0.00867518  0.28980807    -0.15900
C659        C  0.17708693  0.01102203  0.32992415     0.03100
C660        C  0.18488157  0.99529418  0.35348911    -0.11200
C661        C  0.19255338  0.97754813  0.33630276    -0.01200
C662        C  0.19240240  0.97520088  0.29628227    -0.06400
H663        H  0.17128419  0.02108091  0.27176303     0.06100
H664        H  0.19875919  0.96548867  0.35414027     0.09500
Br665      Br  0.12512541  0.95699209  0.23989456    -0.06100
Br666      Br  0.24468781  0.02376132  0.13945140    -0.03000
Br667      Br  0.16872503  0.03758141  0.35073833    -0.00200
Br668      Br  0.20264129  0.95011550  0.27506709    -0.04600
C669        C  0.07799051  0.94181868  0.98198203    -0.12000
C670        C  0.06087951  0.95274834  0.99161238     0.03500
C671        C  0.03255334  0.93611036  0.99235645    -0.12500
C672        C  0.02020415  0.90850920  0.98229611     0.18400
C673        C  0.03710279  0.89774207  0.97054358    -0.09500
C674        C  0.06583724  0.91427691  0.97103239    -0.02500
H675        H  0.01994951  0.94506085  0.99993944     0.04900
C676        C  0.99007777  0.89375741  0.97838129     0.20300
H677        H  0.07857295  0.90543766  0.96378502     0.10100
C678        C  0.98025982  0.90562514  0.95175414    -0.15900
C679        C  0.95238682  0.89505688  0.94826436     0.03100
C680        C  0.93299408  0.87084389  0.97052850    -0.11200
C681        C  0.94267640  0.85927094  0.99834494    -0.01200
C682        C  0.97104640  0.87084511  0.00278910    -0.06400
H683        H  0.99458499  0.92393847  0.93401828     0.06100
H684        H  0.92829085  0.84112558  0.01624158     0.09500
Br685      Br  0.02190902  0.86117411  0.95226621    -0.06100
Br686      Br  0.07496775  0.99078713  0.00306139    -0.03000
Br687      Br  0.94281039  0.91635992  0.91370547    -0.00200
Br688      Br  0.98279621  0.85568308  0.04348260    -0.04600
C689        C  0.14229232  0.05067505  0.99396058    -0.12000
C690        C  0.14606090  0.06343762  0.95631700     0.03500
C691        C  0.13382499  0.07947318  0.94774001    -0.12500
C692        C  0.11809822  0.08353662  0.97599486     0.18400
C693        C  0.11545522  0.07208866  0.01385785    -0.09500
C694        C  0.12774182  0.05623369  0.02262039    -0.02500
H695        H  0.13630444  0.08855159  0.91868925     0.04900
C696        C  0.10351361  0.09866015  0.96554701     0.20300
H697        H  0.12430534  0.04673765  0.05158108     0.10100
C698        C  0.07948474  0.08528086  0.94529599    -0.15900
C699        C  0.06219327  0.09656472  0.94205773     0.03100
C700        C  0.06892869  0.12158488  0.95911154    -0.11200
C701        C  0.09418254  0.13610793  0.97619370    -0.01200
C702        C  0.11151385  0.12496306  0.97925531    -0.06400
H703        H  0.07326132  0.06515928  0.93423554     0.06100
H704        H  0.09947872  0.15520468  0.98988655     0.09500
Br705      Br  0.09327864  0.07551071  0.05397916    -0.06100
Br706      Br  0.16777577  0.06037018  0.91507583    -0.03000
Br707      Br  0.02821906  0.07579313  0.91791511    -0.00200
Br708      Br  0.14490444  0.14531539  0.00503154    -0.04600
C709        C  0.72407395  0.78462132  0.91757776    -0.12000
C710        C  0.71183312  0.75900203  0.89992539     0.03500
C711        C  0.68799287  0.75050116  0.87999755    -0.12500
C712        C  0.67534655  0.76666630  0.87819053     0.18400
C713        C  0.68647664  0.79136653  0.89793548    -0.09500
C714        C  0.71080320  0.80029411  0.91717986    -0.02500
H715        H  0.67897815  0.73089924  0.86632530     0.04900
C716        C  0.64994698  0.75650610  0.85686927     0.20300
H717        H  0.71958337  0.81970235  0.93130814     0.10100
C718        C  0.62462395  0.74407987  0.87764396    -0.15900
C719        C  0.60004699  0.73136015  0.85874677     0.03100
C720        C  0.60041012  0.73071688  0.81774732    -0.11200
C721        C  0.62603480  0.74441825  0.79703368    -0.01200
C722        C  0.65055331  0.75703873  0.81619996    -0.06400
H723        H  0.62398257  0.74368097  0.90895485     0.06100
H724        H  0.62714352  0.74440651  0.76578319     0.09500
Br725      Br  0.66929657  0.81360421  0.89886827    -0.06100
Br726      Br  0.72547881  0.73365820  0.90498711    -0.03000
Br727      Br  0.56713595  0.71563711  0.89155771    -0.00200
Br728      Br  0.68452779  0.77428812  0.78578302    -0.04600
C729        C  0.50382631  0.66747025  0.62291616    -0.12000
C730        C  0.52253911  0.68623916  0.59383723     0.03500
C731        C  0.51970696  0.67919833  0.55530281    -0.12500
C732        C  0.49856732  0.65346457  0.54502509     0.18400
C733        C  0.47993881  0.63451431  0.57409195    -0.09500
C734        C  0.48246748  0.64177404  0.61267424    -0.02500
H735        H  0.53391020  0.69403131  0.53310550     0.04900
C736        C  0.49563777  0.64802535  0.50347309     0.20300
H737        H  0.46836693  0.62690278  0.63492045     0.10100
C738        C  0.51606859  0.64588718  0.48225614    -0.15900
C739        C  0.51629728  0.64547492  0.44172623     0.03100
C740        C  0.49582942  0.64757345  0.42178655    -0.11200
C741        C  0.47465817  0.64813735  0.44369253    -0.01200
C742        C  0.47458794  0.64870769  0.48382924    -0.06400
H743        H  0.53244612  0.64549951  0.49725311     0.06100
H744        H  0.45839328  0.64928805  0.42950084     0.09500
Br745      Br  0.45165394  0.59814541  0.56272297    -0.06100
Br746      Br  0.55172886  0.72216956  0.60506466    -0.03000
Br747      Br  0.54582575  0.64347245  0.41599891    -0.00200
Br748      Br  0.44672797  0.65336248  0.50988059    -0.04600
C749        C  0.50515761  0.66648829  0.12395124    -0.12000
C750        C  0.52815119  0.68441992  0.09917828     0.03500
C751        C  0.52722876  0.68156163  0.05927710    -0.12500
C752        C  0.50368974  0.66103224  0.04331863     0.18400
C753        C  0.48064473  0.64318149  0.06782051    -0.09500
C754        C  0.48142961  0.64609636  0.10785977    -0.02500
H755        H  0.54480202  0.69573197  0.04050331     0.04900
C756        C  0.50280985  0.66020930  0.00081617     0.20300
H757        H  0.46377627  0.63194218  0.12650754     0.10100
C758        C  0.51360245  0.64611885  0.98056495    -0.15900
C759        C  0.51258864  0.64496117  0.94017109     0.03100
C760        C  0.50034209  0.65794996  0.91955656    -0.11200
C761        C  0.49037766  0.67271697  0.94024317    -0.01200
C762        C  0.49170857  0.67406400  0.98026915    -0.06400
H763        H  0.52260416  0.63578030  0.99629795     0.06100
H764        H  0.48147069  0.68343623  0.92523281     0.09500
Br765      Br  0.44793924  0.61439069  0.04767579    -0.06100
Br766      Br  0.56094477  0.71416265  0.11797689    -0.03000
Br767      Br  0.52730691  0.62452101  0.91554867    -0.00200
Br768      Br  0.47834353  0.69535432  0.00582228    -0.04600
C769        C  0.72585628  0.78443281  0.41072455    -0.12000
C770        C  0.71545628  0.76016841  0.38991282     0.03500
C771        C  0.69094644  0.75059029  0.37135251    -0.12500
C772        C  0.67649238  0.76501935  0.37207199     0.18400
C773        C  0.68677847  0.78927805  0.39283836    -0.09500
C774        C  0.71110615  0.79861183  0.41230220    -0.02500
H775        H  0.68305954  0.73164977  0.35617495     0.04900
C776        C  0.65055421  0.75379693  0.35153665     0.20300
H777        H  0.71884776  0.81733334  0.42793900     0.10100
C778        C  0.62558023  0.74413484  0.37278312    -0.15900
C779        C  0.60056052  0.73071208  0.35490561     0.03100
C780        C  0.60012749  0.72638989  0.31482724    -0.11200
C781        C  0.62526098  0.73718553  0.29341717    -0.01200
C782        C  0.65019732  0.75060982  0.31133093    -0.06400
H783        H  0.62551021  0.74652190  0.40366702     0.06100
H784        H  0.62557061  0.73426081  0.26271021     0.09500
Br785      Br  0.66907426  0.81103659  0.39379149    -0.06100
Br786      Br  0.73310518  0.73834234  0.38718632    -0.03000
Br787      Br  0.56792716  0.71967463  0.38679412    -0.00200
Br788      Br  0.68327522  0.76407943  0.27950879    -0.04600
C789        C  0.39808028  0.59686712  0.73986401    -0.12000
C790        C  0.38368105  0.60822539  0.72134363     0.03500
C791        C  0.35497270  0.59313033  0.72216487    -0.12500
C792        C  0.34029160  0.56676451  0.74139550     0.18400
C793        C  0.35475186  0.55447978  0.75685789    -0.09500
C794        C  0.38338493  0.56952560  0.75605177    -0.02500
H795        H  0.34403269  0.60287015  0.71047302     0.04900
C796        C  0.31062508  0.55476784  0.75132627     0.20300
H797        H  0.39409376  0.56071643  0.77107688     0.10100
C798        C  0.29101198  0.53684618  0.72678131    -0.15900
C799        C  0.26287010  0.52562741  0.73596351     0.03100
C800        C  0.25389883  0.53259605  0.77041227    -0.11200
C801        C  0.27394403  0.55016915  0.79511496    -0.01200
C802        C  0.30184850  0.56114050  0.78588903    -0.06400
H803        H  0.29763773  0.53152320  0.70038389     0.06100
H804        H  0.26803912  0.55602552  0.82162428     0.09500
Br805      Br  0.33607469  0.51851635  0.78341812    -0.06100
Br806      Br  0.40196921  0.64582799  0.70017441    -0.03000
Br807      Br  0.23836002  0.50050927  0.70039453    -0.00200
Br808      Br  0.32742906  0.58519033  0.82133531    -0.04600
C809        C  0.10975809  0.37724294  0.84191199    -0.12000
C810        C  0.08494534  0.35356147  0.83294960     0.03500
C811        C  0.07299993  0.32965100  0.85815271    -0.12500
C812        C  0.08509555  0.32849788  0.89249273     0.18400
C813        C  0.10990257  0.35171097  0.90118392    -0.09500
C814        C  0.12190075  0.37565335  0.87622710    -0.02500
H815        H  0.05383413  0.31188658  0.85120194     0.04900
C816        C  0.07096949  0.30320102  0.91926394     0.20300
H817        H  0.14084618  0.39328918  0.88406859     0.10100
C818        C  0.08098546  0.28461772  0.92205099    -0.15900
C819        C  0.06589791  0.25884088  0.94297088     0.03100
C820        C  0.04040781  0.25137223  0.96161413    -0.11200
C821        C  0.03150032  0.27087040  0.96104217    -0.01200
C822        C  0.04646483  0.29648993  0.94019508    -0.06400
H823        H  0.09987595  0.28955841  0.90626478     0.06100
H824        H  0.01178298  0.26534102  0.97475781     0.09500
Br825      Br  0.12753219  0.35207248  0.94775625    -0.06100
Br826      Br  0.06522967  0.35248890  0.78821605    -0.03000
Br827      Br  0.07922114  0.23322958  0.94142476    -0.00200
Br828      Br  0.03186644  0.32108676  0.93952986    -0.04600
C829        C  0.17017874  0.48306888  0.63587478    -0.12000
C830        C  0.17244318  0.46381504  0.61281990     0.03500
C831        C  0.17070231  0.46554864  0.57286841    -0.12500
C832        C  0.16730031  0.48653368  0.55530632     0.18400
C833        C  0.16716532  0.50700651  0.57776711    -0.09500
C834        C  0.16860756  0.50516775  0.61784293    -0.02500
H835        H  0.17179988  0.45034396  0.55539980     0.04900
C836        C  0.16418566  0.48672697  0.51340176     0.20300
H837        H  0.16698789  0.52019112  0.63507106     0.10100
C838        C  0.13915456  0.46788165  0.49852853    -0.15900
C839        C  0.13588280  0.46698174  0.45856164     0.03100
C840        C  0.15815373  0.48531734  0.43290932    -0.11200
C841        C  0.18313532  0.50411493  0.44853581    -0.01200
C842        C  0.18629842  0.50477775  0.48814031    -0.06400
H843        H  0.12214664  0.45372325  0.51815991     0.06100
H844        H  0.20071364  0.51842950  0.42992214     0.09500
Br845      Br  0.16363625  0.53693139  0.55516051    -0.06100
Br846      Br  0.17847883  0.43507879  0.63398032    -0.03000
Br847      Br  0.10081009  0.44004534  0.44168301    -0.00200
Br848      Br  0.22155708  0.53007315  0.50630591    -0.04600
C849        C  0.16036586  0.47646285  0.93378192    -0.12000
C850        C  0.13669458  0.46760051  0.95829359     0.03500
C851        C  0.13889463  0.46800648  0.99842323    -0.12500
C852        C  0.16427071  0.47695218  0.01444688     0.18400
C853        C  0.18755024  0.48454879  0.99030076    -0.09500
C854        C  0.18549825  0.48430931  0.95039658    -0.02500
H855        H  0.12083757  0.46171885  0.01723783     0.04900
C856        C  0.16601023  0.47757296  0.05655832     0.20300
H857        H  0.20387915  0.49076797  0.93223900     0.10100
C858        C  0.16190830  0.45376140  0.07736655    -0.15900
C859        C  0.16197664  0.45294456  0.11755712     0.03100
C860        C  0.16585966  0.47619798  0.13749026    -0.11200
C861        C  0.17156138  0.50063786  0.11644943    -0.01200
C862        C  0.17164451  0.50143081  0.07605374    -0.06400
H863        H  0.15835474  0.43565653  0.06225497     0.06100
H864        H  0.17469765  0.51864990  0.13143524     0.09500
Br865      Br  0.22260312  0.49586224  0.01065255    -0.06100
Br866      Br  0.10129645  0.45633179  0.93922508    -0.03000
Br867      Br  0.15714347  0.41965834  0.14365373    -0.00200
Br868      Br  0.17868700  0.53504286  0.04861301    -0.04600
C869        C  0.39545856  0.59485038  0.24765243    -0.12000
C870        C  0.38174847  0.60419266  0.22341526     0.03500
C871        C  0.35301047  0.58986918  0.22461522    -0.12500
C872        C  0.33764997  0.56657394  0.25031043     0.18400
C873        C  0.35138054  0.55621702  0.27254008    -0.09500
C874        C  0.37996753  0.57016691  0.27076292    -0.02500
H875        H  0.34261380  0.59810108  0.20757806     0.04900
C876        C  0.30789485  0.55565675  0.25767874     0.20300
H877        H  0.39017330  0.56308933  0.29025260     0.10100
C878        C  0.28883371  0.52924178  0.24626997    -0.15900
C879        C  0.26068353  0.51795622  0.25499962     0.03100
C880        C  0.25118316  0.53324074  0.27580077    -0.11200
C881        C  0.27052639  0.55962451  0.28730066    -0.01200
C882        C  0.29848837  0.57083145  0.27841345    -0.06400
H883        H  0.29594533  0.51724318  0.23084159     0.06100
H884        H  0.26388721  0.57196483  0.30283557     0.09500
Br885      Br  0.33216065  0.52544680  0.30979763    -0.06100
Br886      Br  0.40108723  0.63855568  0.19289565    -0.03000
Br887      Br  0.23671918  0.48122518  0.23911457    -0.00200
Br888      Br  0.32310269  0.60675303  0.29627289    -0.04600
C889        C  0.10947741  0.37745782  0.34550556    -0.12000
C890        C  0.11959840  0.37572785  0.38188452     0.03500
C891        C  0.10743073  0.35049615  0.40411454    -0.12500
C892        C  0.08524390  0.32664026  0.39102810     0.18400
C893        C  0.07555447  0.32802890  0.35452159    -0.09500
C894        C  0.08770463  0.35313929  0.33209089    -0.02500
H895        H  0.11503308  0.34958446  0.43213747     0.04900
C896        C  0.07091877  0.30108279  0.41695261     0.20300
H897        H  0.07950639  0.35376469  0.30445728     0.10100
C898        C  0.04674719  0.29545434  0.43738840    -0.15900
C899        C  0.03065352  0.27015423  0.45843560     0.03100
C900        C  0.03866193  0.24983614  0.45960847    -0.11200
C901        C  0.06385801  0.25621936  0.44134194    -0.01200
C902        C  0.07995814  0.28165196  0.42001768    -0.06400
H903        H  0.03976751  0.31037388  0.43559764     0.06100
H904        H  0.07001239  0.24065190  0.44115883     0.09500
Br905      Br  0.04534129  0.29616458  0.33452354    -0.06100
Br906      Br  0.15034820  0.40657766  0.40292735    -0.03000
Br907      Br  0.99685091  0.26357065  0.48317998    -0.00200
Br908      Br  0.11287583  0.28809270  0.39283816    -0.04600
C909        C  0.23100068  0.95406805  0.97377524    -0.12000
C910        C  0.20963682  0.92831443  0.96307186     0.03500
C911        C  0.21572687  0.91081191  0.94186456    -0.12500
C912        C  0.24292450  0.91855312  0.93120877     0.18400
C913        C  0.26425435  0.94341098  0.94397276    -0.09500
C914        C  0.25821262  0.96080659  0.96508220    -0.02500
H915        H  0.19917022  0.89170594  0.93216726     0.04900
C916        C  0.24898684  0.90173680  0.90463672     0.20300
H917        H  0.27490044  0.98068779  0.97243295     0.10100
C918        C  0.24779535  0.90535449  0.86458541    -0.15900
C919        C  0.25643235  0.89225191  0.83826511     0.03100
C920        C  0.26674296  0.87516061  0.85199507    -0.11200
C921        C  0.26663752  0.87075944  0.89243225    -0.01200
C922        C  0.25799947  0.88384413  0.91847933    -0.06400
H923        H  0.24064361  0.91896156  0.85370186     0.06100
H924        H  0.27400680  0.85757148  0.90417476     0.09500
Br925      Br  0.30193408  0.95568198  0.93011426    -0.06100
Br926      Br  0.17191051  0.91777479  0.97216660    -0.03000
Br927      Br  0.25295296  0.89834954  0.78438995    -0.00200
Br928      Br  0.25951595  0.87726001  0.97283670    -0.04600
C929        C  0.27333790  0.73156085  0.78390487    -0.21000
C930        C  0.25139794  0.72440818  0.75940730     0.03500
C931        C  0.23455553  0.69662000  0.75038933    -0.12500
C932        C  0.23928440  0.67563277  0.76501360     0.18400
C933        C  0.26095681  0.68273139  0.78956232    -0.09500
C934        C  0.27756024  0.71027820  0.79888160    -0.02500
H935        H  0.21761969  0.69133894  0.73208265     0.04900
C936        C  0.22080413  0.64608931  0.75680450     0.20300
H937        H  0.29437234  0.71514856  0.81727937     0.10100
C938        C  0.22957896  0.63318883  0.73027817    -0.15900
C939        C  0.21608768  0.60409835  0.72935173     0.03100
C940        C  0.19342588  0.58748180  0.75521376    -0.11200
C941        C  0.18322168  0.60064860  0.77897167    -0.01200
C942        C  0.19667375  0.62958352  0.77998041    -0.06400
H943        H  0.24817534  0.64565717  0.71235166     0.06100
H944        H  0.16611742  0.58826423  0.79952158     0.09500
Br945      Br  0.26854433  0.65530045  0.81144968    -0.06100
Br946      Br  0.24256286  0.75127084  0.73881985    -0.03000
Br947      Br  0.23170029  0.58797427  0.69655132    -0.00200
Br948      Br  0.18343631  0.64546626  0.81716770    -0.04600
C949        C  0.38363019  0.78897791  0.75340748    -0.12000
C950        C  0.37351198  0.76476551  0.73270294     0.03500
C951        C  0.38739146  0.74966479  0.73222469    -0.12500
C952        C  0.41119624  0.75809398  0.75269404     0.18400
C953        C  0.42239093  0.78346535  0.77079562    -0.09500
C954        C  0.40869493  0.79863107  0.77086501    -0.02500
H955        H  0.37861810  0.73032474  0.71792304     0.04900
C956        C  0.42262497  0.73918173  0.75807975     0.20300
H957        H  0.41638949  0.81679920  0.78773144     0.10100
C958        C  0.44918295  0.74732329  0.74325064    -0.15900
C959        C  0.46096570  0.73056568  0.74975268     0.03100
C960        C  0.44609575  0.70493780  0.77141287    -0.11200
C961        C  0.41955790  0.69692890  0.78632990    -0.01200
C962        C  0.40780449  0.71362951  0.77980860    -0.06400
H963        H  0.46096214  0.76703351  0.72692821     0.06100
H964        H  0.40761832  0.67725514  0.80270657     0.09500
Br965      Br  0.45430734  0.79652970  0.80034145    -0.06100
Br966      Br  0.33883872  0.74943007  0.70956267    -0.03000
Br967      Br  0.49800542  0.74461337  0.73044265    -0.00200
Br968      Br  0.37170473  0.70087491  0.80239880    -0.04600
C969        C  0.31507144  0.81866412  0.43985825    -0.12000
C970        C  0.32077252  0.84281598  0.45928198     0.03500
C971        C  0.31666090  0.84115922  0.49944569    -0.12500
C972        C  0.30748266  0.81611699  0.52095850     0.18400
C973        C  0.30148049  0.79205181  0.50206593    -0.09500
C974        C  0.30512551  0.79340373  0.46189015    -0.02500
H975        H  0.32150648  0.85975933  0.51421778     0.04900
C976        C  0.30633969  0.81619165  0.56330652     0.20300
H977        H  0.30044455  0.77454550  0.44799402     0.10100
C978        C  0.28369926  0.81510558  0.58278121    -0.15900
C979        C  0.28322461  0.81753366  0.62275915     0.03100
C980        C  0.30578608  0.82117445  0.64358501    -0.11200
C981        C  0.32801971  0.82136350  0.62403178    -0.01200
C982        C  0.32852880  0.81915204  0.58411223    -0.06400
H983        H  0.26653538  0.81269215  0.56674736     0.06100
H984        H  0.34551532  0.82426153  0.63964487     0.09500
Br985      Br  0.28890061  0.75713450  0.53014916    -0.06100
Br986      Br  0.33563209  0.87917251  0.43423203    -0.03000
Br987      Br  0.25095023  0.81475530  0.64742437    -0.00200
Br988      Br  0.36050177  0.82171352  0.55882845    -0.04600
C989        C  0.31211943  0.82105233  0.93994056    -0.12000
C990        C  0.31881539  0.84526224  0.95981376     0.03500
C991        C  0.31531550  0.84340898  0.00010849    -0.12500
C992        C  0.30510525  0.81793997  0.02102964     0.18400
C993        C  0.29711360  0.79371944  0.00145951    -0.09500
C994        C  0.30081273  0.79541724  0.96136731    -0.02500
H995        H  0.32111929  0.86204069  0.01534766     0.04900
C996        C  0.30385151  0.81725022  0.06339114     0.20300
H997        H  0.29484383  0.77642843  0.94701591     0.10100
C998        C  0.28364095  0.82052722  0.08274211    -0.15900
C999        C  0.28281827  0.82148696  0.12292113     0.03100
C1000       C  0.30279512  0.81940575  0.14421103    -0.11200
C1001       C  0.32241263  0.81514123  0.12460978    -0.01200
C1002       C  0.32318982  0.81427085  0.08449127    -0.06400
H1003       H  0.26855682  0.82250123  0.06644181     0.06100
H1004       H  0.33797215  0.81365732  0.14033837     0.09500
Br1005     Br  0.28091694  0.75789698  0.02835622    -0.06100
Br1006     Br  0.33349044  0.88164698  0.93495254    -0.03000
Br1007     Br  0.25340155  0.82478993  0.14655835    -0.00200
Br1008     Br  0.35201970  0.81066192  0.05960926    -0.04600
C1009       C  0.26989536  0.87449813  0.35597194    -0.12000
C1010       C  0.25963564  0.89177219  0.34278889     0.03500
C1011       C  0.25156809  0.90512452  0.36946299    -0.12500
C1012       C  0.25353780  0.90191412  0.40939436     0.18400
C1013       C  0.26312823  0.88435736  0.42273525    -0.09500
C1014       C  0.27092570  0.87075196  0.39629634    -0.02500
H1015       H  0.24394384  0.91840839  0.35892295     0.04900
C1016       C  0.24580976  0.91746833  0.43625214     0.20300
H1017       H  0.27830384  0.85746448  0.40757869     0.10100
C1018       C  0.21807325  0.90916539  0.44342950    -0.15900
C1019       C  0.21022527  0.92570679  0.46375407     0.03100
C1020       C  0.23033292  0.95122499  0.47701355    -0.11200
C1021       C  0.25801960  0.95865243  0.47169954    -0.01200
C1022       C  0.26582724  0.94202655  0.45170748    -0.06400
H1023       H  0.20249816  0.89035731  0.43161391     0.06100
H1024       H  0.27377545  0.97837447  0.48111281     0.09500
Br1025     Br  0.26598812  0.87836097  0.47684337    -0.06100
Br1026     Br  0.25521701  0.89769190  0.28920483    -0.03000
Br1027     Br  0.17202740  0.91421899  0.46820156    -0.00200
Br1028     Br  0.30418422  0.95502581  0.44311468    -0.04600
C1029       C  0.19749206  0.58660435  0.24232532    -0.12000
C1030       C  0.18498396  0.60203727  0.25300939     0.03500
C1031       C  0.20064524  0.63085754  0.25440650    -0.12500
C1032       C  0.22895351  0.64481990  0.24570433     0.18400
C1033       C  0.24114747  0.62975381  0.23184908    -0.09500
C1034       C  0.22529022  0.60087350  0.22978202    -0.02500
H1035       H  0.19103912  0.64219206  0.26503335     0.04900
C1036       C  0.24550687  0.67395678  0.25666014     0.20300
H1037       H  0.23543409  0.58927195  0.22283559     0.10100
C1038       C  0.24789711  0.67929483  0.29607765    -0.15900
C1039       C  0.26289410  0.70640763  0.30821787     0.03100
C1040       C  0.27596814  0.72906657  0.28050294    -0.11200
C1041       C  0.27290943  0.72350492  0.24094860    -0.01200
C1042       C  0.25791251  0.69637958  0.22899656    -0.06400
H1043       H  0.23799073  0.66214806  0.31762390     0.06100
H1044       H  0.28278534  0.74030877  0.21891805     0.09500
Br1045     Br  0.27990180  0.64693581  0.22086934    -0.06100
Br1046     Br  0.14726415  0.58411043  0.27116060    -0.03000
Br1047     Br  0.26366532  0.71075945  0.36296715    -0.00200
Br1048     Br  0.25461006  0.69099318  0.17463486    -0.04600
C1049       C  0.38309663  0.78623234  0.24844091    -0.12000
C1050       C  0.41042996  0.79848629  0.25921076     0.03500
C1051       C  0.42445600  0.78356470  0.25822840    -0.12500
C1052       C  0.41156195  0.75613335  0.24690597     0.18400
C1053       C  0.38494618  0.74459081  0.23333528    -0.09500
C1054       C  0.37100187  0.75963852  0.23403960    -0.02500
H1055       H  0.44484256  0.79275160  0.26881354     0.04900
C1056       C  0.42439803  0.73870247  0.25476324     0.20300
H1057       H  0.34977506  0.74952008  0.22667209     0.10100
C1058       C  0.41417454  0.71945368  0.28662437    -0.15900
C1059       C  0.42506907  0.70224585  0.29542757     0.03100
C1060       C  0.44715717  0.70406753  0.27209970    -0.11200
C1061       C  0.45752820  0.72369692  0.24025806    -0.01200
C1062       C  0.44648479  0.74095754  0.23171680    -0.06400
H1063       H  0.39718656  0.71751861  0.30459698     0.06100
H1064       H  0.47415184  0.72548553  0.22162009     0.09500
Br1065     Br  0.36611730  0.70748181  0.21646904    -0.06100
Br1066     Br  0.42825714  0.83459930  0.27942832    -0.03000
Br1067     Br  0.40688720  0.67550419  0.33824151    -0.00200
Br1068     Br  0.46143463  0.76665736  0.18751034    -0.04600
C1069       C  0.61716628  0.54691362  0.68884484    -0.12000
C1070       C  0.60448661  0.54200897  0.72645075     0.03500
C1071       C  0.58942139  0.55483811  0.73705103    -0.12500
C1072       C  0.58674654  0.57302786  0.71094427     0.18400
C1073       C  0.59789053  0.57664675  0.67267194    -0.09500
C1074       C  0.61277508  0.56353551  0.66182866    -0.02500
H1075       H  0.58109243  0.55184296  0.76654354     0.04900
C1076       C  0.57573716  0.59076047  0.72552295     0.20300
H1077       H  0.62275527  0.56815750  0.63316541     0.10100
C1078       C  0.59430084  0.61838929  0.73278721    -0.15900
C1079       C  0.58523631  0.63619991  0.74559134     0.03100
C1080       C  0.55694809  0.62667581  0.75147376    -0.11200
C1081       C  0.53831557  0.59865222  0.74592040    -0.01200
C1082       C  0.54751695  0.58074342  0.73314276    -0.06400
H1083       H  0.61606349  0.62626146  0.72805807     0.06100
H1084       H  0.51654689  0.59100361  0.74970458     0.09500
Br1085     Br  0.59473570  0.60082529  0.63504640    -0.06100
Br1086     Br  0.60890683  0.51947077  0.76555436    -0.03000
Br1087     Br  0.61253449  0.67359037  0.75478483    -0.00200
Br1088     Br  0.52085652  0.54320946  0.72439044    -0.04600
C1089       C  0.72071883  0.60373535  0.60350284    -0.12000
C1090       C  0.71822254  0.62717976  0.61099919     0.03500
C1091       C  0.73038906  0.65065581  0.58506545    -0.12500
C1092       C  0.74513391  0.65150316  0.55113407     0.18400
C1093       C  0.74782705  0.62824334  0.54366061    -0.09500
C1094       C  0.73551717  0.60460100  0.56949860    -0.02500
H1095       H  0.72779762  0.66820226  0.59097428     0.04900
C1096       C  0.75618019  0.67636920  0.52339163     0.20300
H1097       H  0.73746268  0.58677594  0.56293573     0.10100
C1098       C  0.78411704  0.69661351  0.52194638    -0.15900
C1099       C  0.79396900  0.72227903  0.50101509     0.03100
C1100       C  0.77586888  0.72800116  0.48070667    -0.11200
C1101       C  0.74829798  0.70704464  0.48042615    -0.01200
C1102       C  0.73846152  0.68152661  0.50130769    -0.06400
H1103       H  0.79799379  0.69311245  0.53899406     0.06100
H1104       H  0.73386626  0.71127205  0.46612124     0.09500
Br1105     Br  0.76727763  0.62755596  0.49780395    -0.06100
Br1106     Br  0.69628023  0.62738945  0.65431440    -0.03000
Br1107     Br  0.83145721  0.75028716  0.50522221    -0.00200
Br1108     Br  0.70016370  0.65494649  0.50090832    -0.04600
C1109       C  0.67341040  0.50816445  0.81907878    -0.12000
C1110       C  0.67945871  0.49001378  0.84065092     0.03500
C1111       C  0.67624050  0.48804462  0.88109667    -0.12500
C1112       C  0.66715834  0.50387657  0.90055764     0.18400
C1113       C  0.66112298  0.52185663  0.87924259    -0.09500
C1114       C  0.66405073  0.52370727  0.83902485    -0.02500
H1115       H  0.68148114  0.47460422  0.89755006     0.04900
C1116       C  0.66674440  0.50361026  0.94308970     0.20300
H1117       H  0.65925552  0.53776998  0.82333300     0.10100
C1118       C  0.69176011  0.51657097  0.96081862    -0.15900
C1119       C  0.69245723  0.51762443  0.00094760     0.03100
C1120       C  0.66785371  0.50603291  0.02385444    -0.11200
C1121       C  0.64277962  0.49316345  0.00620626    -0.01200
C1122       C  0.64206557  0.49160604  0.96600840    -0.06400
H1123       H  0.71080363  0.52584004  0.94333030     0.06100
H1124       H  0.62377458  0.48330667  0.02381985     0.09500
Br1125     Br  0.65055254  0.54570511  0.90383126    -0.06100
Br1126     Br  0.69410095  0.46898014  0.81746840    -0.03000
Br1127     Br  0.72744748  0.53482575  0.02331521    -0.00200
Br1128     Br  0.60715320  0.47163243  0.94382858    -0.04600
C1129       C  0.65923785  0.49364517  0.52468062    -0.12000
C1130       C  0.64614839  0.50469499  0.50192459     0.03500
C1131       C  0.64821510  0.50471049  0.46149559    -0.12500
C1132       C  0.66305207  0.49384702  0.44327316     0.18400
C1133       C  0.67554817  0.48233477  0.46570104    -0.09500
C1134       C  0.67354990  0.48224722  0.50585521    -0.02500
H1135       H  0.63854594  0.51360035  0.44412559     0.04900
C1136       C  0.66724311  0.49666210  0.40088088     0.20300
H1137       H  0.68369712  0.47347337  0.52234958     0.10100
C1138       C  0.69223613  0.51794105  0.38428856    -0.15900
C1139       C  0.69703314  0.52179549  0.34421206     0.03100
C1140       C  0.67648129  0.50428255  0.32015058    -0.11200
C1141       C  0.65185657  0.48227976  0.33680649    -0.01200
C1142       C  0.64712415  0.47838320  0.37699284    -0.06400
H1143       H  0.70805686  0.53159763  0.40266309     0.06100
H1144       H  0.63599854  0.46857993  0.31851349     0.09500
Br1145     Br  0.69574098  0.46666038  0.44262066    -0.06100
Br1146     Br  0.62470279  0.51942335  0.52365617    -0.03000
Br1147     Br  0.73239870  0.55035054  0.32385953    -0.00200
Br1148     Br  0.61317116  0.44786529  0.39804653    -0.04600
C1149       C  0.55489621  0.62038959  0.25513796    -0.12000
C1150       C  0.58250145  0.62857154  0.26086657     0.03500
C1151       C  0.59350765  0.61219033  0.24885494    -0.12500
C1152       C  0.57766827  0.58761154  0.23024858     0.18400
C1153       C  0.54982628  0.57886992  0.22543937    -0.09500
C1154       C  0.53864993  0.59520489  0.23783856    -0.02500
H1155       H  0.61485283  0.61910765  0.25308097     0.04900
C1156       C  0.59107960  0.57192921  0.21618257     0.20300
H1157       H  0.51762560  0.58890002  0.23223385     0.10100
C1158       C  0.59610773  0.55573832  0.24291944    -0.15900
C1159       C  0.61285588  0.54472314  0.23260331     0.03100
C1160       C  0.62520690  0.54981403  0.19476843    -0.11200
C1161       C  0.61875944  0.56454228  0.16727847    -0.01200
C1162       C  0.60200014  0.57567346  0.17776548    -0.06400
H1163       H  0.58786274  0.55259474  0.27248334     0.06100
H1164       H  0.62831147  0.56911137  0.13833948     0.09500
Br1165     Br  0.52672376  0.54528888  0.20095523    -0.06100
Br1166     Br  0.60637798  0.66271841  0.28376095    -0.03000
Br1167     Br  0.61900740  0.52357475  0.27195330    -0.00200
Br1168     Br  0.59652277  0.59794778  0.13962729    -0.04600
C1169       C  0.77647271  0.73071237  0.99026353    -0.12000
C1170       C  0.79694573  0.72391775  0.99797844     0.03500
C1171       C  0.79005441  0.69907943  0.01933574    -0.12500
C1172       C  0.76298140  0.68091278  0.03344668     0.18400
C1173       C  0.74247218  0.68713089  0.02424960    -0.09500
C1174       C  0.74923524  0.71160369  0.00274928    -0.02500
H1175       H  0.80602534  0.69454402  0.02642055     0.04900
C1176       C  0.75617128  0.65653812  0.06003519     0.20300
H1177       H  0.73322290  0.71648682  0.99758235     0.10100
C1178       C  0.75392680  0.65878408  0.10000579    -0.15900
C1179       C  0.74240633  0.63526597  0.12583623     0.03100
C1180       C  0.73274760  0.60853983  0.11169818    -0.11200
C1181       C  0.73654863  0.60676841  0.07164296    -0.01200
C1182       C  0.74804885  0.63034830  0.04603282    -0.06400
H1183       H  0.75992564  0.67888372  0.11099364     0.06100
H1184       H  0.72972073  0.58677733  0.05981657     0.09500
Br1185     Br  0.70508442  0.66363599  0.04285040    -0.06100
Br1186     Br  0.83486411  0.74916211  0.98416920    -0.03000
Br1187     Br  0.73847928  0.64147237  0.17922928    -0.00200
Br1188     Br  0.75070736  0.62567792  0.99181358    -0.04600
C1189       C  0.54247371  0.25278687  0.70663300    -0.12000
C1190       C  0.53980905  0.26071338  0.74446382     0.03500
C1191       C  0.55095239  0.28887999  0.75176156    -0.12500
C1192       C  0.56455088  0.30962432  0.72221330     0.18400
C1193       C  0.56658658  0.30192291  0.68456049    -0.09500
C1194       C  0.55562724  0.27393620  0.67706024    -0.02500
H1195       H  0.54900606  0.29465231  0.78071571     0.04900
C1196       C  0.57643890  0.33932948  0.73033223     0.20300
H1197       H  0.55818898  0.26887343  0.64791694     0.10100
C1198       C  0.60326415  0.35417306  0.74255535    -0.15900
C1199       C  0.61747999  0.38330784  0.74079742     0.03100
C1200       C  0.60498330  0.39792632  0.72596259    -0.11200
C1201       C  0.57720998  0.38291333  0.71779117    -0.01200
C1202       C  0.56286978  0.35386759  0.72029890    -0.06400
H1203       H  0.61382199  0.34318047  0.75080153     0.06100
H1204       H  0.56733049  0.39377124  0.70609289     0.09500
Br1205     Br  0.58503262  0.32914899  0.64250147    -0.06100
Br1206     Br  0.52125937  0.23486976  0.78802500    -0.03000
Br1207     Br  0.65503469  0.40219687  0.75390290    -0.00200
Br1208     Br  0.52560212  0.33478920  0.70592573    -0.04600
C1209       C  0.36854979  0.91870724  0.77465399    -0.12000
C1210       C  0.36841382  0.93971945  0.79609205     0.03500
C1211       C  0.38593367  0.96776023  0.78431342    -0.12500
C1212       C  0.40385161  0.97554787  0.75125749     0.18400
C1213       C  0.40571401  0.95468541  0.73191816    -0.09500
C1214       C  0.38799514  0.92661764  0.74339607    -0.02500
H1215       H  0.38433552  0.98356458  0.79960841     0.04900
C1216       C  0.41735211  0.00485322  0.73486613     0.20300
H1217       H  0.38831629  0.91082433  0.72639553     0.10100
C1218       C  0.44573682  0.02278155  0.73656192    -0.15900
C1219       C  0.45787583  0.05118378  0.72498706     0.03100
C1220       C  0.44154366  0.06206552  0.71179937    -0.11200
C1221       C  0.41350844  0.04377932  0.70820480    -0.01200
C1222       C  0.40149322  0.01550775  0.71909595    -0.06400
H1223       H  0.45828885  0.01490909  0.74823719     0.06100
H1224       H  0.40062170  0.05177642  0.69821913     0.09500
Br1225     Br  0.43029110  0.96339945  0.68750272    -0.06100
Br1226     Br  0.34218051  0.93139914  0.83830706    -0.03000
Br1227     Br  0.49626849  0.07482954  0.73076936    -0.00200
Br1228     Br  0.36305307  0.99226295  0.71255401    -0.04600
C1229       C  0.39719463  0.12650814  0.65425221    -0.12000
C1230       C  0.39778933  0.13093505  0.61353910     0.03500
C1231       C  0.37333177  0.11972135  0.59432435    -0.12500
C1232       C  0.34789366  0.10443602  0.61468211     0.18400
C1233       C  0.34709736  0.10182740  0.65535354    -0.09500
C1234       C  0.37151517  0.11278635  0.67474869    -0.02500
H1235       H  0.37420349  0.12218903  0.56306714     0.04900
C1236       C  0.32286902  0.08876457  0.59280682     0.20300
H1237       H  0.37031189  0.10945030  0.70589419     0.10100
C1238       C  0.31057797  0.05981290  0.59346226    -0.15900
C1239       C  0.28780580  0.04400998  0.57202526     0.03100
C1240       C  0.27671168  0.05709601  0.54914301    -0.11200
C1241       C  0.28924130  0.08616113  0.54795809    -0.01200
C1242       C  0.31208030  0.10198250  0.56967617    -0.06400
H1243       H  0.31907037  0.04945174  0.61034519     0.06100
H1244       H  0.28094043  0.09653525  0.53071376     0.09500
Br1245     Br  0.31301926  0.08301213  0.68545939    -0.06100
Br1246     Br  0.43102626  0.15229402  0.58194090    -0.03000
Br1247     Br  0.27389706  0.00470420  0.57313543    -0.00200
Br1248     Br  0.32728982  0.14140664  0.56805194    -0.04600
C1249       C  0.50619675  0.15351499  0.04958977    -0.12000
C1250       C  0.51414244  0.17724667  0.02447286     0.03500
C1251       C  0.51101937  0.17447212  0.98488649    -0.12500
C1252       C  0.49973892  0.14846939  0.96949567     0.18400
C1253       C  0.49136884  0.12471343  0.99410146    -0.09500
C1254       C  0.49458156  0.12733174  0.03391290    -0.02500
H1255       H  0.51701469  0.19271627  0.96593776     0.04900
C1256       C  0.49630464  0.14687285  0.92765092     0.20300
H1257       H  0.48829120  0.10890350  0.05255500     0.10100
C1258       C  0.51854363  0.15200955  0.90275043    -0.15900
C1259       C  0.51671539  0.15306898  0.86265653     0.03100
C1260       C  0.49216267  0.14879733  0.84710510    -0.11200
C1261       C  0.46982194  0.14326465  0.87228644    -0.01200
C1262       C  0.47186904  0.14264612  0.91229322    -0.06400
H1263       H  0.53747950  0.15551484  0.91460618     0.06100
H1264       H  0.45093589  0.14020284  0.86078870     0.09500
Br1265     Br  0.47567205  0.08852978  0.97432186    -0.06100
Br1266     Br  0.52756725  0.21396975  0.04170628    -0.03000
Br1267     Br  0.54798649  0.15930872  0.83099941    -0.00200
Br1268     Br  0.44134566  0.13728308  0.94495988    -0.04600
C1269       C  0.49719172  0.15718345  0.55012274    -0.12000
C1270       C  0.50348643  0.18033658  0.52477707     0.03500
C1271       C  0.50187983  0.17738445  0.48501559    -0.12500
C1272       C  0.49394813  0.15177229  0.46960538     0.18400
C1273       C  0.48746623  0.12859340  0.49455946    -0.09500
C1274       C  0.48888118  0.13137719  0.53452926    -0.02500
H1275       H  0.50668830  0.19521949  0.46586467     0.04900
C1276       C  0.49289505  0.15022597  0.42728067     0.20300
H1277       H  0.48421894  0.11346317  0.55337737     0.10100
C1278       C  0.51736718  0.16445119  0.40443483    -0.15900
C1279       C  0.51725566  0.16594664  0.36410441     0.03100
C1280       C  0.49209499  0.15294278  0.34586329    -0.11200
C1281       C  0.46762956  0.13837641  0.36910658    -0.01200
C1282       C  0.46785382  0.13718868  0.40939807    -0.06400
H1283       H  0.53670168  0.17473704  0.41818196     0.06100
H1284       H  0.44806686  0.12842866  0.35595440     0.09500
Br1285     Br  0.47789359  0.09319617  0.47528846    -0.06100
Br1286     Br  0.51316273  0.21639339  0.54189664    -0.03000
Br1287     Br  0.55232444  0.18536186  0.33657318    -0.00200
Br1288     Br  0.43341101  0.11915797  0.43876311    -0.04600
C1289       C  0.61198808  0.39879289  0.21189758    -0.12000
C1290       C  0.58368501  0.38356765  0.20667948     0.03500
C1291       C  0.57010549  0.35449207  0.20761794    -0.12500
C1292       C  0.58454749  0.34025965  0.21292948     0.18400
C1293       C  0.61258818  0.35541039  0.21994062    -0.09500
C1294       C  0.62599428  0.38439951  0.21976419    -0.02500
H1295       H  0.54860278  0.34306557  0.20181139     0.04900
C1296       C  0.57104858  0.31018437  0.20650208     0.20300
H1297       H  0.64797634  0.39584896  0.22223215     0.10100
C1298       C  0.57338183  0.30188371  0.16960954    -0.15900
C1299       C  0.56282773  0.27383562  0.16253986     0.03100
C1300       C  0.54939622  0.25306677  0.19310025    -0.11200
C1301       C  0.54605624  0.26170639  0.22972626    -0.01200
C1302       C  0.55687186  0.28985925  0.23654675    -0.06400
H1303       H  0.58409688  0.31749585  0.14622553     0.06100
H1304       H  0.53596562  0.24662778  0.25383305     0.09500
Br1305     Br  0.63393232  0.33753316  0.22582219    -0.06100
Br1306     Br  0.56362011  0.40188554  0.19377149    -0.03000
Br1307     Br  0.56844141  0.26643275  0.11036989    -0.00200
Br1308     Br  0.55302212  0.29985859  0.28774160    -0.04600
C1309       C  0.44633254  0.06111441  0.21381434    -0.12000
C1310       C  0.45825719  0.05066081  0.23973436     0.03500
C1311       C  0.44504637  0.02208911  0.25050107    -0.12500
C1312       C  0.41979499  0.00344358  0.23581433     0.18400
C1313       C  0.40839326  0.01378550  0.20878222    -0.09500
C1314       C  0.42153394  0.04230953  0.19820998    -0.02500
H1315       H  0.45407291  0.01453943  0.27134429     0.04900
C1316       C  0.40451409  0.97371723  0.25066465     0.20300
H1317       H  0.41168699  0.05001225  0.17904768     0.10100
C1318       C  0.38661280  0.96596387  0.28369174    -0.15900
C1319       C  0.36887505  0.93787351  0.29529916     0.03100
C1320       C  0.36874826  0.91676406  0.27373014    -0.11200
C1321       C  0.38766433  0.92465134  0.24178877    -0.01200
C1322       C  0.40554085  0.95272754  0.23045536    -0.06400
H1323       H  0.38546219  0.98183919  0.29943053     0.06100
H1324       H  0.38766066  0.90884645  0.22445074     0.09500
Br1325     Br  0.37397557  0.98982950  0.18737144    -0.06100
Br1326     Br  0.49160762  0.07509885  0.26313940    -0.03000
Br1327     Br  0.34294288  0.92959064  0.33788864    -0.00200
Br1328     Br  0.43002758  0.96152086  0.18591827    -0.04600
C1329       C  0.28555716  0.06123696  0.03746027    -0.12000
C1330       C  0.29670989  0.04720779  0.05806566     0.03500
C1331       C  0.32003449  0.06212557  0.07873882    -0.12500
C1332       C  0.33280142  0.09103363  0.07920167     0.18400
C1333       C  0.32236134  0.10524075  0.05761779    -0.09500
C1334       C  0.29887695  0.09030839  0.03683105    -0.02500
H1335       H  0.32833788  0.05111213  0.09454358     0.04900
C1336       C  0.35733923  0.10562950  0.10185112     0.20300
H1337       H  0.29055960  0.10133362  0.02112837     0.10100
C1338       C  0.38322453  0.11949855  0.08256273    -0.15900
C1339       C  0.40702605  0.13000825  0.10311277     0.03100
C1340       C  0.40510183  0.12614953  0.14404700    -0.11200
C1341       C  0.37900329  0.11371713  0.16322080    -0.01200
C1342       C  0.35531440  0.10352271  0.14250434    -0.06400
H1343       H  0.38489725  0.12152261  0.05123954     0.06100
H1344       H  0.37683237  0.11085251  0.19446315     0.09500
Br1345     Br  0.33888846  0.14478310  0.05719784    -0.06100
Br1346     Br  0.28168162  0.00775838  0.05772141    -0.03000
Br1347     Br  0.44112345  0.14974930  0.07295388    -0.00200
Br1348     Br  0.32050873  0.08631611  0.17083008    -0.04600
C1349       C  0.93640115  0.19584310  0.54121761    -0.12000
C1350       C  0.90882013  0.18820166  0.53566860     0.03500
C1351       C  0.89620772  0.20019629  0.55709831    -0.12500
C1352       C  0.91052006  0.22002197  0.58406467     0.18400
C1353       C  0.93791481  0.22756026  0.58970612    -0.09500
C1354       C  0.95048529  0.21559618  0.56850946    -0.02500
H1355       H  0.87507901  0.19408679  0.55259256     0.04900
C1356       C  0.89700011  0.23323263  0.60534416     0.20300
H1357       H  0.97177600  0.22236119  0.57289118     0.10100
C1358       C  0.89232470  0.22885970  0.64568567    -0.15900
C1359       C  0.88177971  0.24281315  0.66702523     0.03100
C1360       C  0.87543155  0.26172250  0.64786942    -0.11200
C1361       C  0.87919607  0.26503104  0.60714802    -0.01200
C1362       C  0.88987401  0.25120405  0.58609268    -0.06400
H1363       H  0.89756625  0.21493540  0.66082682     0.06100
H1364       H  0.87445447  0.27907494  0.59131427     0.09500
Br1365     Br  0.95962788  0.25522532  0.62463922    -0.06100
Br1366     Br  0.88685719  0.16099862  0.50039132    -0.03000
Br1367     Br  0.87803035  0.23561145  0.72213381    -0.00200
Br1368     Br  0.89603715  0.25909010  0.53117647    -0.04600
C1369       C  0.80215698  0.39812006  0.71311050    -0.12000
C1370       C  0.81075077  0.42259999  0.68952917     0.03500
C1371       C  0.79424539  0.43480225  0.68722251    -0.12500
C1372       C  0.76897756  0.42313096  0.70827749     0.18400
C1373       C  0.76158351  0.40021221  0.73457436    -0.09500
C1374       C  0.77812930  0.38794212  0.73687357    -0.02500
H1375       H  0.80039618  0.45249086  0.66709557     0.04900
C1376       C  0.74941584  0.43300498  0.69899200     0.20300
H1377       H  0.77090959  0.36896150  0.75467262     0.10100
C1378       C  0.72559804  0.41543799  0.68035480    -0.15900
C1379       C  0.70676786  0.42377999  0.67023390     0.03100
C1380       C  0.71155047  0.45056220  0.67852359    -0.11200
C1381       C  0.73559623  0.46818353  0.69703545    -0.01200
C1382       C  0.75446163  0.45974038  0.70690899    -0.06400
H1383       H  0.72149580  0.39487046  0.67387474     0.06100
H1384       H  0.73969316  0.48862721  0.70416685     0.09500
Br1385     Br  0.72825614  0.38404177  0.76632332    -0.06100
Br1386     Br  0.84379836  0.43859653  0.65699091    -0.03000
Br1387     Br  0.67401915  0.39641080  0.64801907    -0.00200
Br1388     Br  0.78632800  0.48500431  0.73259577    -0.04600
C1389       C  0.60102884  0.20087262  0.72687405    -0.12000
C1390       C  0.61799133  0.19288263  0.70719008     0.03500
C1391       C  0.64650719  0.20905932  0.70771182    -0.12500
C1392       C  0.65887864  0.23367395  0.72725659     0.18400
C1393       C  0.64197709  0.24091648  0.74891373    -0.09500
C1394       C  0.61327968  0.22443002  0.74879006    -0.02500
H1395       H  0.65914548  0.20331001  0.69071314     0.04900
C1396       C  0.68878963  0.25313197  0.71918543     0.20300
H1397       H  0.60060686  0.23140379  0.76300209     0.10100
C1398       C  0.69768422  0.26645345  0.68226442    -0.15900
C1399       C  0.72553872  0.28371052  0.67160629     0.03100
C1400       C  0.74576867  0.28789896  0.69826394    -0.11200
C1401       C  0.73658017  0.27451967  0.73556101    -0.01200
C1402       C  0.70852965  0.25734695  0.74603254    -0.06400
H1403       H  0.68265405  0.26336903  0.66137173     0.06100
H1404       H  0.75125060  0.27740893  0.75691394     0.09500
Br1405     Br  0.65701028  0.27474910  0.77517199    -0.06100
Br1406     Br  0.60303638  0.16144488  0.67580534    -0.03000
Br1407     Br  0.73340693  0.30108936  0.62026372    -0.00200
Br1408     Br  0.69810535  0.23955264  0.79695850    -0.04600
C1409       C  0.93501509  0.36941102  0.70431902    -0.12000
C1410       C  0.94474673  0.39753310  0.71134119     0.03500
C1411       C  0.97149219  0.41408906  0.72368656    -0.12500
C1412       C  0.98884774  0.40300214  0.72925383     0.18400
C1413       C  0.97953020  0.37536393  0.72015233    -0.09500
C1414       C  0.95298976  0.35895473  0.70803270    -0.02500
H1415       H  0.97843558  0.43538249  0.73017870     0.04900
C1416       C  0.01644452  0.41985377  0.74495310     0.20300
H1417       H  0.94593711  0.33741503  0.70284281     0.10100
C1418       C  0.02151847  0.41248903  0.78181578    -0.15900
C1419       C  0.04835599  0.42352979  0.79408831     0.03100
C1420       C  0.07080012  0.44260802  0.76942201    -0.11200
C1421       C  0.06531919  0.45189003  0.73417661    -0.01200
C1422       C  0.03860651  0.44059754  0.72176516    -0.06400
H1423       H  0.00464420  0.39656960  0.80001724     0.06100
H1424       H  0.08217836  0.46637303  0.71457265     0.09500
Br1425     Br  0.00219924  0.35880818  0.72443821    -0.06100
Br1426     Br  0.92151471  0.41341722  0.70803992    -0.03000
Br1427     Br  0.05320992  0.40881123  0.84217503    -0.00200
Br1428     Br  0.03384624  0.45155717  0.67079234    -0.04600
C1429       C  0.84200245  0.33135484  0.83800321    -0.12000
C1430       C  0.86676394  0.34664951  0.85653735     0.03500
C1431       C  0.86659426  0.34600600  0.89684157    -0.12500
C1432       C  0.84211002  0.33036594  0.91920734     0.18400
C1433       C  0.81730291  0.31579295  0.90087906    -0.09500
C1434       C  0.81737084  0.31646448  0.86048045    -0.02500
H1435       H  0.88564028  0.35780599  0.91085535     0.04900
C1436       C  0.84278301  0.33077992  0.96163041     0.20300
H1437       H  0.79830692  0.30437537  0.84665039     0.10100
C1438       C  0.83362572  0.34661931  0.98063100    -0.15900
C1439       C  0.83392541  0.34772635  0.02073358     0.03100
C1440       C  0.84412743  0.33329254  0.04244330    -0.11200
C1441       C  0.85384604  0.31783718  0.02337295    -0.01200
C1442       C  0.85291053  0.31623107  0.98314615    -0.06400
H1443       H  0.82600599  0.35799892  0.96414831     0.06100
H1444       H  0.86106833  0.30611030  0.03988608     0.09500
Br1445     Br  0.78314100  0.29361477  0.92993487    -0.06100
Br1446     Br  0.90134264  0.36951709  0.82842880    -0.03000
Br1447     Br  0.82047992  0.36963575  0.04431562    -0.00200
Br1448     Br  0.86394088  0.29265174  0.95896316    -0.04600
C1449       C  0.85150177  0.33909195  0.54208634    -0.12000
C1450       C  0.87409566  0.34026171  0.52136129     0.03500
C1451       C  0.87479966  0.34085257  0.48081685    -0.12500
C1452       C  0.85359711  0.34074547  0.46054249     0.18400
C1453       C  0.83189200  0.34096338  0.48106791    -0.09500
C1454       C  0.83097578  0.34008950  0.52122098    -0.02500
H1455       H  0.89156015  0.34062607  0.46507048     0.04900
C1456       C  0.85277996  0.33790298  0.41840278     0.20300
H1457       H  0.81375560  0.33993275  0.53616446     0.10100
C1458       C  0.83154412  0.31363954  0.40446345    -0.15900
C1459       C  0.82863196  0.31050969  0.36488503     0.03100
C1460       C  0.84724956  0.33178440  0.33844476    -0.11200
C1461       C  0.86904839  0.35576347  0.35229013    -0.01200
C1462       C  0.87185809  0.35903152  0.39205020    -0.06400
H1463       H  0.81707465  0.29706765  0.42460280     0.06100
H1464       H  0.88394594  0.37194257  0.33215925     0.09500
Br1465     Br  0.80278757  0.34233375  0.45558871    -0.06100
Br1466     Br  0.90394975  0.33989872  0.54595761    -0.03000
Br1467     Br  0.79997596  0.27608617  0.34861637    -0.00200
Br1468     Br  0.90151857  0.39275948  0.40893329    -0.04600
C1469       C  0.87732364  0.26186811  0.14488394    -0.12000
C1470       C  0.88730984  0.24569880  0.16327187     0.03500
C1471       C  0.89690105  0.23130775  0.14104765    -0.12500
C1472       C  0.89673677  0.23227544  0.10056041     0.18400
C1473       C  0.88585048  0.24726904  0.08225384    -0.09500
C1474       C  0.87633001  0.26177676  0.10419029    -0.02500
H1475       H  0.90532640  0.21987846  0.15543456     0.04900
C1476       C  0.91037415  0.21981719  0.07787140     0.20300
H1477       H  0.86863038  0.27357437  0.08899520     0.10100
C1478       C  0.89492807  0.19372585  0.06241208    -0.15900
C1479       C  0.90777970  0.18180152  0.04121700     0.03100
C1480       C  0.93653113  0.19598578  0.03535403    -0.11200
C1481       C  0.95180752  0.22200444  0.05094357    -0.01200
C1482       C  0.93904493  0.23396825  0.07169184    -0.06400
H1483       H  0.87286721  0.18252394  0.06713559     0.06100
H1484       H  0.97391152  0.23327632  0.04661520     0.09500
Br1485     Br  0.88492958  0.24965817  0.02705192    -0.06100
Br1486     Br  0.89006890  0.24309492  0.21820467    -0.03000
Br1487     Br  0.88554077  0.14550547  0.02305308    -0.00200
Br1488     Br  0.96162637  0.27005802  0.09047405    -0.04600
C1489       C  0.71803227  0.45511706  0.18023155    -0.12000
C1490       C  0.73289215  0.44921016  0.15212601     0.03500
C1491       C  0.74871326  0.43742647  0.16368014    -0.12500
C1492       C  0.75005577  0.43107642  0.20285015     0.18400
C1493       C  0.73585247  0.43743583  0.23089734    -0.09500
C1494       C  0.72021112  0.44936521  0.21958473    -0.02500
H1495       H  0.75974601  0.43276099  0.14185449     0.04900
C1496       C  0.76592627  0.41729363  0.21351211     0.20300
H1497       H  0.70898989  0.45334963  0.24194262     0.10100
C1498       C  0.79465689  0.43248974  0.21021835    -0.15900
C1499       C  0.81010281  0.41916174  0.21401411     0.03100
C1500       C  0.79688406  0.39024770  0.22173940    -0.11200
C1501       C  0.76825289  0.37544410  0.22781330    -0.01200
C1502       C  0.75276292  0.38859914  0.22338729    -0.06400
H1503       H  0.80502722  0.45454452  0.20258250     0.06100
H1504       H  0.75767151  0.35303596  0.23208321     0.09500
Br1505     Br  0.73700463  0.42992216  0.28504926    -0.06100
Br1506     Br  0.73305377  0.45694524  0.09764548    -0.03000
Br1507     Br  0.84897712  0.44062410  0.20430270    -0.00200
Br1508     Br  0.71363457  0.36585349  0.22610006    -0.04600
C1509       C  0.60298585  0.20104445  0.24024594    -0.12000
C1510       C  0.61579716  0.22807670  0.25353089     0.03500
C1511       C  0.64441241  0.24368855  0.25327615    -0.12500
C1512       C  0.66056771  0.23283663  0.23936564     0.18400
C1513       C  0.64765575  0.20487116  0.22989759    -0.09500
C1514       C  0.61908691  0.18925657  0.23041034    -0.02500
H1515       H  0.65410942  0.26509288  0.26097042     0.04900
C1516       C  0.69019038  0.25171470  0.22961400     0.20300
H1517       H  0.60952884  0.16871710  0.21941727     0.10100
C1518       C  0.70975060  0.24821010  0.24914826    -0.15900
C1519       C  0.73770488  0.26422772  0.23804116     0.03100
C1520       C  0.74664324  0.28452203  0.20703053    -0.11200
C1521       C  0.72688031  0.28809420  0.18789550    -0.01200
C1522       C  0.69902375  0.27198637  0.19878291    -0.06400
H1523       H  0.70314818  0.23245285  0.27257667     0.06100
H1524       H  0.73310284  0.30378437  0.16445123     0.09500
Br1525     Br  0.66799752  0.18819249  0.21079406    -0.06100
Br1526     Br  0.59543908  0.24605571  0.26658243    -0.03000
Br1527     Br  0.76216266  0.25579838  0.26448555    -0.00200
Br1528     Br  0.67383953  0.27787316  0.16943686    -0.04600
C1529       C  0.93354775  0.37601915  0.19974356    -0.12000
C1530       C  0.93774568  0.39519335  0.22798343     0.03500
C1531       C  0.96402377  0.41223484  0.24092625    -0.12500
C1532       C  0.98650316  0.41059360  0.22595090     0.18400
C1533       C  0.98256947  0.39259112  0.19605647    -0.09500
C1534       C  0.95625560  0.37544779  0.18332250    -0.02500
H1535       H  0.96669560  0.42582487  0.26402280     0.04900
C1536       C  0.01304129  0.42478289  0.24483427     0.20300
H1537       H  0.95325684  0.36023554  0.16253766     0.10100
C1538       C  0.01597307  0.41261279  0.27925121    -0.15900
C1539       C  0.04190886  0.42143637  0.29346973     0.03100
C1540       C  0.06542112  0.44289294  0.27331523    -0.11200
C1541       C  0.06215536  0.45668050  0.24085486    -0.01200
C1542       C  0.03623730  0.44791726  0.22671456    -0.06400
H1543       H  0.99825640  0.39484247  0.29353136     0.06100
H1544       H  0.08006283  0.47298932  0.22471231     0.09500
Br1545     Br  0.01204395  0.38847232  0.17476364    -0.06100
Br1546     Br  0.90762906  0.39683412  0.25223626    -0.03000
Br1547     Br  0.04465353  0.40095409  0.33707919    -0.00200
Br1548     Br  0.03364061  0.46664662  0.18090967    -0.04600
loop_ 
_geom_bond_atom_site_label_1 
_geom_bond_atom_site_label_2 
_geom_bond_distance 
_geom_bond_site_symmetry_2 
_ccdc_geom_bond_type 
O1           Ni7   1.918       .  S
O1           C22   1.270       .  A
O2          Ni25   1.917       .  S
O2           C11   1.274       .  A
O3           Ni7   1.887       .  S
O3          Ni25   1.891       .  S
O3          Ni19   1.907       .  S
O3           H26   0.966       .  S
C4           O21   1.275       .  A
C4           O13   1.276       .  A
C4         C1469   1.507       .  S
O5          Ni24   1.926       .  S
O5           C11   1.271       .  A
O6          Ni24   1.903       .  S
O6            C8   1.268       .  A
Ni7          O10   1.909       .  S
Ni7          O12   1.908       .  S
C8           O18   1.279       .  A
C8         C1529   1.478       .  S
O9          Ni25   1.952       .  S
O9           C15   1.289       .  A
O10          C15   1.276       .  A
C11        C1460   1.467       .  S
O12          C14   1.270       .  A
O13         Ni24   1.936       .  S
C14          O20   1.272       .  A
C14        C1520   1.490       .  S
C15        C1500   1.475       .  S
H16          O17   0.966       .  S
O17         Ni25   1.938       .  S
O17         Ni19   1.904       .  S
O17         Ni24   1.902       .  S
O18         Ni19   1.950       .  S
Ni19         O23   1.909       .  S
Ni19         O21   1.927       .  S
O20         Ni25   1.932       .  S
C22          O23   1.271       .  A
C22        C1440   1.468       .  S
O27         Ni33   1.918       .  S
O27          C48   1.273       .  A
O28         Ni51   1.917       .  S
O28          C37   1.276       .  A
O29         Ni33   1.879       .  S
O29         Ni51   1.886       .  S
O29         Ni45   1.903       .  S
O29          H52   0.967       .  S
C30          O47   1.276       .  A
C30          O39   1.277       .  A
C30        C1360   1.506       .  S
O31         Ni50   1.921       .  S
O31          C37   1.272       .  A
O32         Ni50   1.906       .  S
O32          C34   1.269       .  A
Ni33         O36   1.910       .  S
Ni33         O38   1.915       .  S
C34          O44   1.281       .  A
C34        C1409   1.489       .  S
O35         Ni51   1.960       .  S
O35          C41   1.294       .  A
O36          C41   1.278       .  A
C37        C1429   1.472       .  S
O38          C40   1.268       .  A
O39         Ni50   1.937       .  S
C40          O46   1.274       .  A
C40        C1400   1.508       .  S
C41        C1369   1.485       .  S
H42          O43   0.966       .  S
O43         Ni51   1.941       .  S
O43         Ni45   1.897       .  S
O43         Ni50   1.892       .  S
O44         Ni45   1.957       .  S
Ni45         O49   1.908       .  S
Ni45         O47   1.927       .  S
O46         Ni51   1.941       .  S
C48          O49   1.270       .  A
C48        C1449   1.483       .  S
O53         Ni59   1.927       .  S
O53          C74   1.272       .  A
O54         Ni77   1.906       .  S
O54          C63   1.270       .  A
O55         Ni59   1.900       .  S
O55         Ni77   1.901       .  S
O55         Ni71   1.905       .  S
O55          H78   0.966       .  S
C56          O73   1.273       .  A
C56          O65   1.279       .  A
C56        C1340   1.490       .  S
O57         Ni76   1.932       .  S
O57          C63   1.275       .  A
O58         Ni76   1.912       .  S
O58          C60   1.269       .  A
Ni59         O62   1.915       .  S
Ni59         O64   1.913       .  S
C60          O70   1.281       .  A
C60        C1309   1.488       .  S
O61         Ni77   1.930       .  S
O61          C67   1.280       .  A
O62          C67   1.275       .  A
C63        C1280   1.484       .  S
O64          C66   1.268       .  A
O65         Ni76   1.931       .  S
C66          O72   1.275       .  A
C66        C1300   1.504       .  S
C67        C1509   1.471       .  S
H68          O69   0.966       .  S
O69         Ni77   1.917       .  S
O69         Ni71   1.895       .  S
O69         Ni76   1.895       .  S
O70         Ni71   1.957       .  S
Ni71         O75   1.905       .  S
Ni71         O73   1.916       .  S
O72         Ni77   1.939       .  S
C74          O75   1.270       .  A
C74        C1249   1.481       .  S
O79         Ni85   1.931       .  S
O79         C100   1.274       .  A
O80        Ni103   1.901       .  S
O80          C89   1.270       .  A
O81         Ni85   1.896       .  S
O81        Ni103   1.890       .  S
O81         Ni97   1.899       .  S
O81         H104   0.965       .  S
C82          O99   1.272       .  A
C82          O91   1.278       .  A
C82        C1229   1.497       .  S
O83        Ni102   1.932       .  S
O83          C89   1.275       .  A
O84        Ni102   1.909       .  S
O84          C86   1.271       .  A
Ni85         O88   1.922       .  S
Ni85         O90   1.921       .  S
C86          O96   1.282       .  A
C86        C1220   1.486       .  S
O87        Ni103   1.942       .  S
O87          C93   1.286       .  A
O88          C93   1.278       .  A
C89        C1260   1.473       .  S
O90          C92   1.272       .  A
O91        Ni102   1.939       .  S
C92          O98   1.268       .  A
C92        C1189   1.502       .  S
C93        C1389   1.481       .  S
H94          O95   0.967       .  S
O95        Ni103   1.933       .  S
O95         Ni97   1.899       .  S
O95        Ni102   1.900       .  S
O96         Ni97   1.956       .  S
Ni97        O101   1.901       .  S
Ni97         O99   1.919       .  S
O98        Ni103   1.928       .  S
C100        O101   1.270       .  A
C100       C1269   1.479       .  S
O105       Ni111   1.924       .  S
O105        C126   1.271       .  A
O106       Ni129   1.897       .  S
O106        C115   1.266       .  A
O107       Ni111   1.900       .  S
O107       Ni129   1.882       .  S
O107       Ni123   1.892       .  S
O107        H130   0.967       .  S
C108        O125   1.267       .  A
C108        O117   1.272       .  A
C108       C1180   1.501       .  S
O109       Ni128   1.925       .  S
O109        C115   1.272       .  A
O110       Ni128   1.903       .  S
O110        C112   1.272       .  A
Ni111       O114   1.912       .  S
Ni111       O116   1.921       .  S
C112        O122   1.288       .  A
C112       C1160   1.494       .  S
O113       Ni129   1.942       .  S
O113        C119   1.286       .  A
O114        C119   1.276       .  A
C115       C1140   1.468       .  S
O116        C118   1.269       .  A
O117       Ni128   1.937       .  S
C118        O124   1.269       .  A
C118       C1489   1.499       .  S
C119       C1289   1.472       .  S
H120        O121   0.966       .  S
O121       Ni129   1.950       .  S
O121       Ni123   1.919       .  S
O121       Ni128   1.916       .  S
O122       Ni123   1.970       .  S
Ni123       O127   1.908       .  S
Ni123       O125   1.908       .  S
O124       Ni129   1.922       .  S
C126        O127   1.270       .  A
C126       C1120   1.463       .  S
O131       Ni137   1.915       .  S
O131        C152   1.272       .  A
O132       Ni155   1.900       .  S
O132        C141   1.267       .  A
O133       Ni137   1.892       .  S
O133       Ni155   1.885       .  S
O133       Ni149   1.906       .  S
O133        H156   0.966       .  S
C134        O151   1.272       .  A
C134        O143   1.276       .  A
C134       C1089   1.495       .  S
O135       Ni154   1.928       .  S
O135        C141   1.274       .  A
O136       Ni154   1.893       .  S
O136        C138   1.268       .  A
Ni137       O140   1.907       .  S
Ni137       O142   1.922       .  S
C138        O148   1.289       .  A
C138       C1069   1.494       .  S
O139       Ni155   1.955       .  S
O139        C145   1.288       .  A
O140        C145   1.276       .  A
C141       C1109   1.483       .  S
O142        C144   1.270       .  A
O143       Ni154   1.940       .  S
C144        O150   1.272       .  A
C144       C1380   1.501       .  S
C145       C1200   1.478       .  S
H146        O147   0.966       .  S
O147       Ni155   1.944       .  S
O147       Ni149   1.914       .  S
O147       Ni154   1.907       .  S
O148       Ni149   1.979       .  S
Ni149       O153   1.916       .  S
Ni149       O151   1.923       .  S
O150       Ni155   1.936       .  S
C152        O153   1.274       .  A
C152       C1129   1.485       .  S
O157       Ni163   1.933       .  S
O157        C178   1.274       .  A
O158       Ni181   1.900       .  S
O158        C167   1.271       .  A
O159       Ni163   1.905       .  S
O159       Ni181   1.887       .  S
O159       Ni175   1.889       .  S
O159        H182   0.967       .  S
C160        O177   1.262       .  A
C160        O169   1.273       .  A
C160       C1009   1.502       .  S
O161       Ni180   1.918       .  S
O161        C167   1.272       .  A
O162       Ni180   1.896       .  S
O162        C164   1.270       .  A
Ni163       O166   1.911       .  S
Ni163       O168   1.921       .  S
C164        O174   1.290       .  A
C164       C1320   1.492       .  S
O165       Ni181   1.958       .  S
O165        C171   1.289       .  A
O166        C171   1.276       .  A
C167       C1000   1.474       .  S
O168        C170   1.270       .  A
O169       Ni180   1.955       .  S
C170        O176   1.269       .  A
C170       C1040   1.495       .  S
C171       C1049   1.483       .  S
H172        O173   0.966       .  S
O173       Ni181   1.954       .  S
O173       Ni175   1.900       .  S
O173       Ni180   1.916       .  S
O174       Ni175   1.986       .  S
Ni175       O179   1.891       .  S
Ni175       O177   1.900       .  S
O176       Ni181   1.920       .  S
C178        O179   1.264       .  A
C178        C969   1.484       .  S
O183       Ni189   1.927       .  S
O183        C204   1.272       .  A
O184       Ni207   1.895       .  S
O184        C193   1.269       .  A
O185       Ni189   1.903       .  S
O185       Ni207   1.888       .  S
O185       Ni201   1.886       .  S
O185        H208   0.965       .  S
C186        O203   1.260       .  A
C186        O195   1.274       .  A
C186        C920   1.500       .  S
O187       Ni206   1.925       .  S
O187        C193   1.274       .  A
O188       Ni206   1.898       .  S
O188        C190   1.271       .  A
Ni189       O192   1.907       .  S
Ni189       O194   1.919       .  S
C190        O200   1.288       .  A
C190       C1209   1.489       .  S
O191       Ni207   1.951       .  S
O191        C197   1.287       .  A
O192        C197   1.275       .  A
C193        C980   1.470       .  S
O194        C196   1.271       .  A
O195       Ni206   1.959       .  S
C196        O202   1.269       .  A
C196        C929   1.494       .  S
C197        C949   1.480       .  S
H198        O199   0.965       .  S
O199       Ni207   1.951       .  S
O199       Ni201   1.901       .  S
O199       Ni206   1.916       .  S
O200       Ni201   1.981       .  S
Ni201       O205   1.893       .  S
Ni201       O203   1.893       .  S
O202       Ni207   1.927       .  S
C204        O205   1.263       .  A
C204        C989   1.481       .  S
O209       Ni215   1.905       .  S
O209        C230   1.267       .  A
O210       Ni233   1.906       .  S
O210        C219   1.270       .  A
O211       Ni215   1.882       .  S
O211       Ni233   1.883       .  S
O211       Ni227   1.898       .  S
O211        H234   0.967       .  S
C212        O229   1.267       .  A
C212        O221   1.275       .  A
C212        C889   1.495       .  S
O213       Ni232   1.917       .  S
O213        C219   1.271       .  A
O214       Ni232   1.891       .  S
O214        C216   1.267       .  A
Ni215       O218   1.896       .  S
Ni215       O220   1.910       .  S
C216        O226   1.284       .  A
C216       C1540   1.479       .  S
O217       Ni233   1.959       .  S
O217        C223   1.290       .  A
O218        C223   1.276       .  A
C219        C860   1.468       .  S
O220        C222   1.268       .  A
O221       Ni232   1.938       .  S
C222        O228   1.267       .  A
C222        C880   1.489       .  S
C223       C1029   1.473       .  S
H224        O225   0.966       .  S
O225       Ni233   1.943       .  S
O225       Ni227   1.914       .  S
O225       Ni232   1.905       .  S
O226       Ni227   1.964       .  S
Ni227       O231   1.919       .  S
Ni227       O229   1.906       .  S
O228       Ni233   1.924       .  S
C230        O231   1.271       .  A
C230        C840   1.485       .  S
O235       Ni241   1.916       .  S
O235        C256   1.270       .  A
O236       Ni259   1.907       .  S
O236        C245   1.271       .  A
O237       Ni241   1.893       .  S
O237       Ni259   1.883       .  S
O237       Ni253   1.887       .  S
O237        H260   0.967       .  S
C238        O255   1.261       .  A
C238        O247   1.271       .  A
C238        C809   1.502       .  S
O239       Ni258   1.911       .  S
O239        C245   1.271       .  A
O240       Ni258   1.885       .  S
O240        C242   1.270       .  A
Ni241       O244   1.907       .  S
Ni241       O246   1.912       .  S
C242        O252   1.294       .  A
C242       C1420   1.493       .  S
O243       Ni259   1.959       .  S
O243        C249   1.291       .  A
O244        C249   1.277       .  A
C245        C829   1.472       .  S
O246        C248   1.269       .  A
O247       Ni258   1.952       .  S
C248        O254   1.268       .  A
C248        C800   1.500       .  S
C249        C940   1.484       .  S
H250        O251   0.966       .  S
O251       Ni259   1.963       .  S
O251       Ni253   1.907       .  S
O251       Ni258   1.911       .  S
O252       Ni253   1.991       .  S
Ni253       O257   1.908       .  S
Ni253       O255   1.902       .  S
O254       Ni259   1.930       .  S
C256        O257   1.269       .  A
C256        C849   1.477       .  S
O261       Ni267   1.917       .  S
O261        C282   1.272       .  A
O262       Ni285   1.921       .  S
O262        C271   1.275       .  A
O263       Ni267   1.883       .  S
O263       Ni285   1.893       .  S
O263       Ni279   1.902       .  S
O263        H286   0.965       .  S
C264        O281   1.274       .  A
C264        O273   1.278       .  A
C264        C780   1.493       .  S
O265       Ni284   1.922       .  S
O265        C271   1.272       .  A
O266       Ni284   1.908       .  S
O266        C268   1.269       .  A
Ni267       O270   1.910       .  S
Ni267       O272   1.913       .  S
C268        O278   1.283       .  A
C268       C1149   1.489       .  S
O269       Ni285   1.946       .  S
O269        C275   1.289       .  A
O270        C275   1.278       .  A
C271        C749   1.477       .  S
O272        C274   1.268       .  A
O273       Ni284   1.932       .  S
C274        O280   1.276       .  A
C274       C1060   1.505       .  S
C275        C869   1.477       .  S
H276        O277   0.967       .  S
O277       Ni285   1.936       .  S
O277       Ni279   1.905       .  S
O277       Ni284   1.895       .  S
O278       Ni279   1.962       .  S
Ni279       O283   1.921       .  S
Ni279       O281   1.924       .  S
O280       Ni285   1.949       .  S
C282        O283   1.272       .  A
C282        C740   1.491       .  S
O287       Ni293   1.927       .  S
O287        C308   1.275       .  A
O288       Ni311   1.907       .  S
O288        C297   1.271       .  A
O289       Ni293   1.891       .  S
O289       Ni311   1.890       .  S
O289       Ni305   1.898       .  S
O289        H312   0.965       .  S
C290        O307   1.269       .  A
C290        O299   1.278       .  A
C290        C720   1.499       .  S
O291       Ni310   1.930       .  S
O291        C297   1.274       .  A
O292       Ni310   1.905       .  S
O292        C294   1.271       .  A
Ni293       O296   1.913       .  S
Ni293       O298   1.918       .  S
C294        O304   1.285       .  A
C294       C1080   1.492       .  S
O295       Ni311   1.944       .  S
O295        C301   1.286       .  A
O296        C301   1.277       .  A
C297        C729   1.473       .  S
O298        C300   1.271       .  A
O299       Ni310   1.940       .  S
C300        O306   1.273       .  A
C300        C960   1.493       .  S
C301        C789   1.477       .  S
H302        O303   0.967       .  S
O303       Ni311   1.937       .  S
O303       Ni305   1.907       .  S
O303       Ni310   1.904       .  S
O304       Ni305   1.964       .  S
Ni305       O309   1.913       .  S
Ni305       O307   1.912       .  S
O306       Ni311   1.936       .  S
C308        O309   1.273       .  A
C308        C760   1.488       .  S
O313       Ni319   1.925   1_545  S
O313        C334   1.273   1_545  A
O314       Ni337   1.920       .  S
O314        C323   1.275       .  A
O315       Ni319   1.883       .  S
O315       Ni337   1.890   1_554  S
O315       Ni331   1.894   1_565  S
O315        H338   0.966       .  S
C316        O333   1.270       .  A
C316        O325   1.274   1_554  A
C316       C1329   1.477       .  S
O317       Ni336   1.923       .  S
O317        C323   1.273   1_545  A
O318       Ni336   1.906   1_565  S
O318        C320   1.271       .  A
Ni319       O322   1.916       .  S
Ni319       O324   1.920   1_565  S
C320        O330   1.283   1_556  A
C320        C909   1.482       .  S
O321       Ni337   1.948       .  S
O321        C327   1.290       .  A
O322        C327   1.278   1_554  A
C323        C640   1.478       .  S
O324        C326   1.271       .  A
O325       Ni336   1.931       .  S
C326        O332   1.269   1_554  A
C326        C689   1.496   1_554  S
C327        C669   1.483       .  S
H328        O329   0.965       .  S
O329       Ni337   1.936   1_545  S
O329       Ni331   1.901   1_556  S
O329       Ni336   1.893       .  S
O330       Ni331   1.950   1_565  S
Ni331       O335   1.913   1_545  S
Ni331       O333   1.913       .  S
O332       Ni337   1.928   1_545  S
C334        O335   1.274       .  A
C334        C649   1.474       .  S
O339       Ni345   1.930       .  S
O339        C360   1.276       .  A
O340       Ni363   1.915       .  S
O340        C349   1.273       .  A
O341       Ni345   1.890       .  S
O341       Ni363   1.889       .  S
O341       Ni357   1.895       .  S
O341        H364   0.966       .  S
C342        O359   1.271       .  A
C342        O351   1.275       .  A
C342       C1240   1.485       .  S
O343       Ni362   1.930       .  S
O343        C349   1.273   1_545  A
O344       Ni362   1.908   1_565  S
O344        C346   1.270       .  A
Ni345       O348   1.915       .  S
Ni345       O350   1.928   1_565  S
C346        O356   1.281       .  A
C346       C1020   1.484       .  S
O347       Ni363   1.944       .  S
O347        C353   1.288       .  A
O348        C353   1.277       .  A
C349        C660   1.473       .  S
O350        C352   1.273       .  A
O351       Ni362   1.936       .  S
C352        O358   1.270       .  A
C352        C620   1.497       .  S
C353        C589   1.473       .  S
H354        O355   0.966       .  S
O355       Ni363   1.934   1_545  S
O355       Ni357   1.902   1_545  S
O355       Ni362   1.900       .  S
O356       Ni357   1.950       .  S
Ni357       O361   1.905       .  S
Ni357       O359   1.917   1_565  S
O358       Ni363   1.921   1_545  S
C360        O361   1.272       .  A
C360        C629   1.472       .  S
O365       Ni371   1.934   1_655  S
O365        C386   1.277   1_655  A
O366       Ni389   1.905       .  S
O366        C375   1.269       .  A
O367       Ni371   1.890       .  S
O367       Ni389   1.884   1_554  S
O367       Ni383   1.894   1_455  S
O367        H390   0.967       .  S
C368        O385   1.270       .  A
C368        O377   1.277   1_554  A
C368       C1480   1.488       .  S
O369       Ni388   1.934       .  S
O369        C375   1.275   1_655  A
O370       Ni388   1.903       .  S
O370        C372   1.270   1_655  A
Ni371       O374   1.925       .  S
Ni371       O376   1.928   1_455  S
C372        O382   1.283       .  A
C372        C820   1.482       .  S
O373       Ni389   1.938       .  S
O373        C379   1.286       .  A
O374        C379   1.280   1_554  A
C375        C529   1.480       .  S
O376        C378   1.272   1_554  A
O377       Ni388   1.942       .  S
C378        O384   1.270       .  A
C378        C580   1.500       .  S
C379        C700   1.475       .  S
H380        O381   0.966       .  S
O381       Ni389   1.937   1_655  S
O381       Ni383   1.905   1_556  S
O381       Ni388   1.899       .  S
O382       Ni383   1.956   1_456  S
Ni383       O387   1.902   1_655  S
Ni383       O385   1.918       .  S
O384       Ni389   1.927   1_655  S
C386        O387   1.272       .  A
C386        C549   1.467       .  S
O391       Ni397   1.929       .  S
O391        C412   1.274       .  A
O392       Ni415   1.920   1_655  S
O392        C401   1.274       .  A
O393       Ni397   1.892       .  S
O393       Ni415   1.894       .  S
O393       Ni409   1.900   1_455  S
O393        H416   0.967       .  S
C394        O411   1.274       .  A
C394        O403   1.276       .  A
C394       C1349   1.498       .  S
O395       Ni414   1.923       .  S
O395        C401   1.273       .  A
O396       Ni414   1.901       .  S
O396        C398   1.269   1_655  A
Ni397       O400   1.917       .  S
Ni397       O402   1.921   1_455  S
C398        O408   1.282       .  A
C398        C900   1.480       .  S
O399       Ni415   1.948       .  S
O399        C405   1.289       .  A
O400        C405   1.277       .  A
C401        C560   1.486       .  S
O402        C404   1.271       .  A
O403       Ni414   1.935       .  S
C404        O410   1.272       .  A
C404        C520   1.495       .  S
C405        C609   1.478       .  S
H406        O407   0.966       .  S
O407       Ni415   1.938   1_655  S
O407       Ni409   1.903       .  S
O407       Ni414   1.896       .  S
O408       Ni409   1.953   1_455  S
Ni409       O413   1.907   1_655  S
Ni409       O411   1.925       .  S
O410       Ni415   1.932   1_655  S
C412        O413   1.272       .  A
C412        C540   1.469       .  S
O417       Ni423   1.923       .  S
O417        C438   1.274       .  A
O418       Ni441   1.921   1_554  S
O418        C427   1.274       .  A
O419       Ni423   1.884       .  S
O419       Ni441   1.892       .  S
O419       Ni435   1.900       .  S
O419        H442   0.967       .  S
C420        O437   1.274       .  A
C420        O429   1.275       .  A
C420        C709   1.483       .  S
O421       Ni440   1.917       .  S
O421        C427   1.270       .  A
O422       Ni440   1.905   1_556  S
O422        C424   1.270       .  A
Ni423       O426   1.911       .  S
Ni423       O428   1.929       .  S
C424        O434   1.281       .  A
C424       C1169   1.488       .  S
O425       Ni441   1.954       .  S
O425        C431   1.291       .  A
O426        C431   1.278       .  A
C427        C489   1.474       .  S
O428        C430   1.271       .  A
O429       Ni440   1.931   1_556  S
C430        O436   1.268       .  A
C430        C569   1.487       .  S
C431        C680   1.491       .  S
H432        O433   0.966       .  S
O433       Ni441   1.939       .  S
O433       Ni435   1.899       .  S
O433       Ni440   1.892   1_556  S
O434       Ni435   1.952       .  S
Ni435       O439   1.916       .  S
Ni435       O437   1.925       .  S
O436       Ni441   1.918       .  S
C438        O439   1.274       .  A
C438        C469   1.478       .  S
O443       Ni449   1.921       .  S
O443        C464   1.274       .  A
O444       Ni467   1.914       .  S
O444        C453   1.273       .  A
O445       Ni449   1.882       .  S
O445       Ni467   1.886       .  S
O445       Ni461   1.895       .  S
O445        H468   0.967       .  S
C446        O463   1.272       .  A
C446        O455   1.276       .  A
C446        C769   1.486       .  S
O447       Ni466   1.928       .  S
O447        C453   1.273       .  A
O448       Ni466   1.903       .  S
O448        C450   1.269       .  A
Ni449       O452   1.912       .  S
Ni449       O454   1.915       .  S
C450        O460   1.285       .  A
C450       C1100   1.487       .  S
O451       Ni467   1.949       .  S
O451        C457   1.289       .  A
O452        C457   1.279       .  A
C453        C480   1.476       .  S
O454        C456   1.270       .  A
O455       Ni466   1.937       .  S
C456        O462   1.273       .  A
C456        C509   1.497       .  S
C457        C600   1.480       .  S
H458        O459   0.966       .  S
O459       Ni467   1.935       .  S
O459       Ni461   1.904       .  S
O459       Ni466   1.898       .  S
O460       Ni461   1.964       .  S
Ni461       O465   1.915       .  S
Ni461       O463   1.918       .  S
O462       Ni467   1.938       .  S
C464        O465   1.275       .  A
C464        C500   1.481       .  S
C469        C470   1.410       .  A
C469        C474   1.405       .  A
C470        C471   1.404       .  A
C470       Br486   1.916       .  S
C471        C472   1.406       .  A
C471        H475   1.083       .  S
C472        C476   1.480       .  S
C472        C473   1.405       .  A
C473        C474   1.395       .  A
C473       Br485   1.920       .  S
C474        H477   1.084       .  S
C476        C478   1.405       .  A
C476        C482   1.406       .  A
C478        C479   1.399       .  A
C478        H483   1.084       .  S
C479        C480   1.408       .  A
C479       Br487   1.917       .  S
C480        C481   1.407       .  A
C481        C482   1.399       .  A
C481        H484   1.084       .  S
C482       Br488   1.918       .  S
C489        C490   1.414       .  A
C489        C494   1.403       .  A
C490        C491   1.395       .  A
C490       Br506   1.922       .  S
C491        C492   1.398       .  A
C491        H495   1.084       .  S
C492        C496   1.473       .  S
C492        C493   1.408       .  A
C493        C494   1.401       .  A
C493       Br505   1.917       .  S
C494        H497   1.083       .  S
C496        C498   1.403       .  A
C496        C502   1.402       .  A
C498        C499   1.402       .  A
C498        H503   1.083       .  S
C499        C500   1.411       .  A
C499       Br507   1.918       .  S
C500        C501   1.409       .  A
C501        C502   1.394       .  A
C501        H504   1.084       .  S
C502       Br508   1.920       .  S
C509        C510   1.416       .  A
C509        C514   1.410       .  A
C510        C511   1.406       .  A
C510       Br526   1.919       .  S
C511        C512   1.403       .  A
C511        H515   1.083       .  S
C512        C516   1.489   1_565  S
C512        C513   1.408       .  A
C513        C514   1.402       .  A
C513       Br525   1.920       .  S
C514        H517   1.083       .  S
C516        C518   1.401       .  A
C516        C522   1.408       .  A
C518        C519   1.403       .  A
C518        H523   1.084   1_545  S
C519        C520   1.418       .  A
C519       Br527   1.921       .  S
C520        C521   1.411       .  A
C521        C522   1.404       .  A
C521        H524   1.083       .  S
C522       Br528   1.918       .  S
C529        C530   1.413       .  A
C529        C534   1.407       .  A
C530        C531   1.400       .  A
C530       Br546   1.921   1_455  S
C531        C532   1.403       .  A
C531        H535   1.084   1_455  S
C532        C536   1.476       .  S
C532        C533   1.404       .  A
C533        C534   1.397       .  A
C533       Br545   1.918       .  S
C534        H537   1.084       .  S
C536        C538   1.403   1_455  A
C536        C542   1.406       .  A
C538        C539   1.398       .  A
C538        H543   1.084       .  S
C539        C540   1.406   1_655  A
C539       Br547   1.915       .  S
C540        C541   1.404       .  A
C541        C542   1.399       .  A
C541        H544   1.084       .  S
C542       Br548   1.918       .  S
C549        C550   1.407   1_455  A
C549        C554   1.402       .  A
C550        C551   1.401       .  A
C550       Br566   1.919       .  S
C551        C552   1.404   1_655  A
C551        H555   1.083       .  S
C552        C556   1.476       .  S
C552        C553   1.406       .  A
C553        C554   1.398       .  A
C553       Br565   1.918       .  S
C554        H557   1.084       .  S
C556        C558   1.404   1_455  A
C556        C562   1.402       .  A
C558        C559   1.403       .  A
C558        H563   1.083       .  S
C559        C560   1.414       .  A
C559       Br567   1.920       .  S
C560        C561   1.410   1_655  A
C561        C562   1.396       .  A
C561        H564   1.084       .  S
C562       Br568   1.919       .  S
C569        C570   1.410       .  A
C569        C574   1.405       .  A
C570        C571   1.411       .  A
C570       Br586   1.917       .  S
C571        C572   1.412       .  A
C571        H575   1.083       .  S
C572        C576   1.497   1_565  S
C572        C573   1.410       .  A
C573        C574   1.396       .  A
C573       Br585   1.921   1_556  S
C574        H577   1.084       .  S
C576        C578   1.407   1_556  A
C576        C582   1.409       .  A
C578        C579   1.406       .  A
C578        H583   1.083       .  S
C579        C580   1.415   1_554  A
C579       Br587   1.919       .  S
C580        C581   1.411       .  A
C581        C582   1.402       .  A
C581        H584   1.083       .  S
C582       Br588   1.920       .  S
C589        C590   1.411       .  A
C589        C594   1.402       .  A
C590        C591   1.402       .  A
C590       Br606   1.919       .  S
C591        C592   1.403       .  A
C591        H595   1.083       .  S
C592        C596   1.488   1_455  S
C592        C593   1.412       .  A
C593        C594   1.403       .  A
C593       Br605   1.919       .  S
C594        H597   1.084       .  S
C596        C598   1.408       .  A
C596        C602   1.406       .  A
C598        C599   1.406       .  A
C598        H603   1.083       .  S
C599        C600   1.408       .  A
C599       Br607   1.918       .  S
C600        C601   1.407       .  A
C601        C602   1.399       .  A
C601        H604   1.084       .  S
C602       Br608   1.919       .  S
C609        C610   1.410       .  A
C609        C614   1.406       .  A
C610        C611   1.408       .  A
C610       Br626   1.916       .  S
C611        C612   1.406       .  A
C611        H615   1.083       .  S
C612        C616   1.489       .  S
C612        C613   1.409       .  A
C613        C614   1.400       .  A
C613       Br625   1.920       .  S
C614        H617   1.084       .  S
C616        C618   1.406       .  A
C616        C622   1.404       .  A
C618        C619   1.408       .  A
C618        H623   1.083       .  S
C619        C620   1.415       .  A
C619       Br627   1.919       .  S
C620        C621   1.412       .  A
C621        C622   1.400       .  A
C621        H624   1.083       .  S
C622       Br628   1.918       .  S
C629        C630   1.409       .  A
C629        C634   1.403       .  A
C630        C631   1.398       .  A
C630       Br646   1.919       .  S
C631        C632   1.401       .  A
C631        H635   1.084       .  S
C632        C636   1.477       .  S
C632        C633   1.409       .  A
C633        C634   1.401       .  A
C633       Br645   1.918   1_565  S
C634        H637   1.084   1_565  S
C636        C638   1.399       .  A
C636        C642   1.409   1_565  A
C638        C639   1.397       .  A
C638        H643   1.084       .  S
C639        C640   1.415       .  A
C639       Br647   1.922       .  S
C640        C641   1.404   1_565  A
C641        C642   1.401       .  A
C641        H644   1.083       .  S
C642       Br648   1.918       .  S
C649        C650   1.409   1_565  A
C649        C654   1.405       .  A
C650        C651   1.403       .  A
C650       Br666   1.916       .  S
C651        C652   1.405   1_545  A
C651        H655   1.083       .  S
C652        C656   1.478       .  S
C652        C653   1.405       .  A
C653        C654   1.396       .  A
C653       Br665   1.919       .  S
C654        H657   1.084       .  S
C656        C658   1.405   1_565  A
C656        C662   1.406       .  A
C658        C659   1.401       .  A
C658        H663   1.084       .  S
C659        C660   1.408   1_545  A
C659       Br667   1.919       .  S
C660        C661   1.405       .  A
C661        C662   1.398       .  A
C661        H664   1.084       .  S
C662       Br668   1.918       .  S
C669        C670   1.413       .  A
C669        C674   1.406       .  A
C670        C671   1.391       .  A
C670       Br686   1.919   1_556  S
C671        C672   1.399       .  A
C671        H675   1.084       .  S
C672        C676   1.488   1_455  S
C672        C673   1.414       .  A
C673        C674   1.412       .  A
C673       Br685   1.916       .  S
C674        H677   1.083       .  S
C676        C678   1.396       .  A
C676        C682   1.414   1_556  A
C678        C679   1.389       .  A
C678        H683   1.084       .  S
C679        C680   1.420       .  A
C679       Br687   1.927       .  S
C680        C681   1.408       .  A
C681        C682   1.413   1_556  A
C681        H684   1.083   1_556  S
C682       Br688   1.917       .  S
C689        C690   1.421       .  A
C689        C694   1.408   1_556  A
C690        C691   1.404       .  A
C690       Br706   1.922       .  S
C691        C692   1.400       .  A
C691        H695   1.083       .  S
C692        C696   1.486       .  S
C692        C693   1.409   1_556  A
C693        C694   1.399       .  A
C693       Br705   1.920       .  S
C694        H697   1.083       .  S
C696        C698   1.406       .  A
C696        C702   1.407       .  A
C698        C699   1.405       .  A
C698        H703   1.083       .  S
C699        C700   1.408       .  A
C699       Br707   1.917       .  S
C700        C701   1.405       .  A
C701        C702   1.400       .  A
C701        H704   1.084       .  S
C702       Br708   1.919   1_556  S
C709        C710   1.412       .  A
C709        C714   1.406       .  A
C710        C711   1.399       .  A
C710       Br726   1.922       .  S
C711        C712   1.401       .  A
C711        H715   1.084       .  S
C712        C716   1.486       .  S
C712        C713   1.410       .  A
C713        C714   1.406       .  A
C713       Br725   1.917       .  S
C714        H717   1.083       .  S
C716        C718   1.399       .  A
C716        C722   1.408       .  A
C718        C719   1.402       .  A
C718        H723   1.084       .  S
C719        C720   1.422       .  A
C719       Br727   1.921       .  S
C720        C721   1.410       .  A
C721        C722   1.404       .  A
C721        H724   1.083       .  S
C722       Br728   1.918       .  S
C729        C730   1.409       .  A
C729        C734   1.404       .  A
C730        C731   1.397       .  A
C730       Br746   1.919       .  S
C731        C732   1.402       .  A
C731        H735   1.084       .  S
C732        C736   1.479       .  S
C732        C733   1.410       .  A
C733        C734   1.402       .  A
C733       Br745   1.919       .  S
C734        H737   1.084       .  S
C736        C738   1.406       .  A
C736        C742   1.403       .  A
C738        C739   1.405       .  A
C738        H743   1.083       .  S
C739        C740   1.416       .  A
C739       Br747   1.920       .  S
C740        C741   1.410       .  A
C741        C742   1.392       .  A
C741        H744   1.083       .  S
C742       Br748   1.921       .  S
C749        C750   1.414       .  A
C749        C754   1.404       .  A
C750        C751   1.397       .  A
C750       Br766   1.921       .  S
C751        C752   1.398       .  A
C751        H755   1.084       .  S
C752        C756   1.477       .  S
C752        C753   1.409       .  A
C753        C754   1.402       .  A
C753       Br765   1.918       .  S
C754        H757   1.083       .  S
C756        C758   1.403   1_554  A
C756        C762   1.402   1_554  A
C758        C759   1.405       .  A
C758        H763   1.083       .  S
C759        C760   1.416       .  A
C759       Br767   1.919       .  S
C760        C761   1.409       .  A
C761        C762   1.394       .  A
C761        H764   1.083       .  S
C762       Br768   1.920   1_556  S
C769        C770   1.413       .  A
C769        C774   1.406       .  A
C770        C771   1.399       .  A
C770       Br786   1.921       .  S
C771        C772   1.402       .  A
C771        H775   1.084       .  S
C772        C776   1.492       .  S
C772        C773   1.412       .  A
C773        C774   1.408       .  A
C773       Br785   1.918       .  S
C774        H777   1.083       .  S
C776        C778   1.404       .  A
C776        C782   1.410       .  A
C778        C779   1.404       .  A
C778        H783   1.083       .  S
C779        C780   1.417       .  A
C779       Br787   1.921       .  S
C780        C781   1.407       .  A
C781        C782   1.401       .  A
C781        H784   1.083       .  S
C782       Br788   1.920       .  S
C789        C790   1.410       .  A
C789        C794   1.405       .  A
C790        C791   1.404       .  A
C790       Br806   1.919       .  S
C791        C792   1.404       .  A
C791        H795   1.083       .  S
C792        C796   1.484       .  S
C792        C793   1.407       .  A
C793        C794   1.401       .  A
C793       Br805   1.918       .  S
C794        H797   1.084       .  S
C796        C798   1.401       .  A
C796        C802   1.406       .  A
C798        C799   1.408       .  A
C798        H803   1.083       .  S
C799        C800   1.423       .  A
C799       Br807   1.921       .  S
C800        C801   1.410       .  A
C801        C802   1.397       .  A
C801        H804   1.083       .  S
C802       Br808   1.920       .  S
C809        C810   1.419       .  A
C809        C814   1.412       .  A
C810        C811   1.407       .  A
C810       Br826   1.921       .  S
C811        C812   1.405       .  A
C811        H815   1.084       .  S
C812        C816   1.492       .  S
C812        C813   1.405       .  A
C813        C814   1.403       .  A
C813       Br825   1.918       .  S
C814        H817   1.083       .  S
C816        C818   1.407       .  A
C816        C822   1.408       .  A
C818        C819   1.408       .  A
C818        H823   1.083       .  S
C819        C820   1.410       .  A
C819       Br827   1.918       .  S
C820        C821   1.406       .  A
C821        C822   1.400       .  A
C821        H824   1.084       .  S
C822       Br828   1.919       .  S
C829        C830   1.413       .  A
C829        C834   1.404       .  A
C830        C831   1.394       .  A
C830       Br846   1.922       .  S
C831        C832   1.398       .  A
C831        H835   1.084       .  S
C832        C836   1.469       .  S
C832        C833   1.407       .  A
C833        C834   1.397       .  A
C833       Br845   1.919       .  S
C834        H837   1.084       .  S
C836        C838   1.403       .  A
C836        C842   1.398       .  A
C838        C839   1.402       .  A
C838        H843   1.084       .  S
C839        C840   1.415       .  A
C839       Br847   1.920       .  S
C840        C841   1.412       .  A
C841        C842   1.389       .  A
C841        H844   1.083       .  S
C842       Br848   1.921       .  S
C849        C850   1.412       .  A
C849        C854   1.409       .  A
C850        C851   1.400       .  A
C850       Br866   1.919       .  S
C851        C852   1.402   1_556  A
C851        H855   1.084   1_556  S
C852        C856   1.466       .  S
C852        C853   1.400   1_554  A
C853        C854   1.391       .  A
C853       Br865   1.920   1_556  S
C854        H857   1.083       .  S
C856        C858   1.396       .  A
C856        C862   1.407       .  A
C858        C859   1.392       .  A
C858        H863   1.084       .  S
C859        C860   1.412       .  A
C859       Br867   1.922       .  S
C860        C861   1.403       .  A
C861        C862   1.399       .  A
C861        H864   1.083       .  S
C862       Br868   1.918       .  S
C869        C870   1.409       .  A
C869        C874   1.406       .  A
C870        C871   1.405       .  A
C870       Br886   1.918       .  S
C871        C872   1.407       .  A
C871        H875   1.083       .  S
C872        C876   1.484       .  S
C872        C873   1.406       .  A
C873        C874   1.397       .  A
C873       Br885   1.920       .  S
C874        H877   1.084       .  S
C876        C878   1.404       .  A
C876        C882   1.407       .  A
C878        C879   1.405       .  A
C878        H883   1.083       .  S
C879        C880   1.417       .  A
C879       Br887   1.921       .  S
C880        C881   1.408       .  A
C881        C882   1.397       .  A
C881        H884   1.083       .  S
C882       Br888   1.921       .  S
C889        C890   1.420       .  A
C889        C894   1.408       .  A
C890        C891   1.404       .  A
C890       Br906   1.922       .  S
C891        C892   1.400       .  A
C891        H895   1.083       .  S
C892        C896   1.485       .  S
C892        C893   1.408       .  A
C893        C894   1.402       .  A
C893       Br905   1.919       .  S
C894        H897   1.083       .  S
C896        C898   1.400       .  A
C896        C902   1.410       .  A
C898        C899   1.398       .  A
C898        H903   1.084       .  S
C899        C900   1.413       .  A
C899       Br907   1.921   1_455  S
C900        C901   1.405       .  A
C901        C902   1.408       .  A
C901        H904   1.083       .  S
C902       Br908   1.917       .  S
C909        C910   1.411       .  A
C909        C914   1.407       .  A
C910        C911   1.407       .  A
C910       Br926   1.918       .  S
C911        C912   1.405       .  A
C911        H915   1.083       .  S
C912        C916   1.485       .  S
C912        C913   1.407       .  A
C913        C914   1.398       .  A
C913       Br925   1.920       .  S
C914        H917   1.084       .  S
C916        C918   1.404       .  A
C916        C922   1.403       .  A
C918        C919   1.406       .  A
C918        H923   1.084       .  S
C919        C920   1.417       .  A
C919       Br927   1.919       .  S
C920        C921   1.413       .  A
C921        C922   1.399       .  A
C921        H924   1.083       .  S
C922       Br928   1.919       .  S
C929        C930   1.418       .  A
C929        C934   1.406       .  A
C930        C931   1.409       .  A
C930       Br946   1.920       .  S
C931        C932   1.405       .  A
C931        H935   1.083       .  S
C932        C936   1.490       .  S
C932        C933   1.408       .  A
C933        C934   1.400       .  A
C933       Br945   1.920       .  S
C934        H937   1.083       .  S
C936        C938   1.407       .  A
C936        C942   1.407       .  A
C938        C939   1.408       .  A
C938        H943   1.083       .  S
C939        C940   1.410       .  A
C939       Br947   1.917       .  S
C940        C941   1.408       .  A
C941        C942   1.401       .  A
C941        H944   1.084       .  S
C942       Br948   1.919       .  S
C949        C950   1.410       .  A
C949        C954   1.405       .  A
C950        C951   1.407       .  A
C950       Br966   1.919       .  S
C951        C952   1.408       .  A
C951        H955   1.083       .  S
C952        C956   1.494       .  S
C952        C953   1.410       .  A
C953        C954   1.401       .  A
C953       Br965   1.919       .  S
C954        H957   1.084       .  S
C956        C958   1.406       .  A
C956        C962   1.412       .  A
C958        C959   1.406       .  A
C958        H963   1.083       .  S
C959        C960   1.414       .  A
C959       Br967   1.918       .  S
C960        C961   1.407       .  A
C961        C962   1.402       .  A
C961        H964   1.084       .  S
C962       Br968   1.921       .  S
C969        C970   1.419       .  A
C969        C974   1.410       .  A
C970        C971   1.396       .  A
C970       Br986   1.923       .  S
C971        C972   1.398       .  A
C971        H975   1.084       .  S
C972        C976   1.467       .  S
C972        C973   1.402       .  A
C973        C974   1.395       .  A
C973       Br985   1.919       .  S
C974        H977   1.083       .  S
C976        C978   1.400       .  A
C976        C982   1.405       .  A
C978        C979   1.398       .  A
C978        H983   1.084       .  S
C979        C980   1.412       .  A
C979       Br987   1.920       .  S
C980        C981   1.403       .  A
C981        C982   1.394       .  A
C981        H984   1.084       .  S
C982       Br988   1.919       .  S
C989        C990   1.418       .  A
C989        C994   1.409       .  A
C990        C991   1.397   1_556  A
C990      Br1006   1.923       .  S
C991        C992   1.399       .  A
C991        H995   1.084       .  S
C992        C996   1.466       .  S
C992        C993   1.401       .  A
C993        C994   1.392   1_554  A
C993      Br1005   1.920       .  S
C994        H997   1.083       .  S
C996        C998   1.398       .  A
C996       C1002   1.405       .  A
C998        C999   1.396       .  A
C998       H1003   1.084       .  S
C999       C1000   1.416       .  A
C999      Br1007   1.922       .  S
C1000      C1001   1.404       .  A
C1001      C1002   1.393       .  A
C1001      H1004   1.084       .  S
C1002     Br1008   1.920       .  S
C1009      C1010   1.418       .  A
C1009      C1014   1.413       .  A
C1010      C1011   1.406       .  A
C1010     Br1026   1.920       .  S
C1011      C1012   1.404       .  A
C1011      H1015   1.084       .  S
C1012      C1016   1.489       .  S
C1012      C1013   1.405       .  A
C1013      C1014   1.402       .  A
C1013     Br1025   1.919       .  S
C1014      H1017   1.082       .  S
C1016      C1018   1.405       .  A
C1016      C1022   1.409       .  A
C1018      C1019   1.406       .  A
C1018      H1023   1.083       .  S
C1019      C1020   1.411       .  A
C1019     Br1027   1.918       .  S
C1020      C1021   1.407       .  A
C1021      C1022   1.402       .  A
C1021      H1024   1.084       .  S
C1022     Br1028   1.919       .  S
C1029      C1030   1.409       .  A
C1029      C1034   1.405       .  A
C1030      C1031   1.399       .  A
C1030     Br1046   1.919       .  S
C1031      C1032   1.402       .  A
C1031      H1035   1.084       .  S
C1032      C1036   1.486       .  S
C1032      C1033   1.412       .  A
C1033      C1034   1.405       .  A
C1033     Br1045   1.919       .  S
C1034      H1037   1.084       .  S
C1036      C1038   1.405       .  A
C1036      C1042   1.404       .  A
C1038      C1039   1.403       .  A
C1038      H1043   1.084       .  S
C1039      C1040   1.415       .  A
C1039     Br1047   1.920       .  S
C1040      C1041   1.413       .  A
C1041      C1042   1.401       .  A
C1041      H1044   1.083       .  S
C1042     Br1048   1.918       .  S
C1049      C1050   1.411       .  A
C1049      C1054   1.406       .  A
C1050      C1051   1.406       .  A
C1050     Br1066   1.918       .  S
C1051      C1052   1.404       .  A
C1051      H1055   1.083       .  S
C1052      C1056   1.496       .  S
C1052      C1053   1.412       .  A
C1053      C1054   1.407       .  A
C1053     Br1065   1.919       .  S
C1054      H1057   1.084       .  S
C1056      C1058   1.401       .  A
C1056      C1062   1.409       .  A
C1058      C1059   1.403       .  A
C1058      H1063   1.084       .  S
C1059      C1060   1.423       .  A
C1059     Br1067   1.924       .  S
C1060      C1061   1.412       .  A
C1061      C1062   1.411       .  A
C1061      H1064   1.083       .  S
C1062     Br1068   1.916       .  S
C1069      C1070   1.417       .  A
C1069      C1074   1.406       .  A
C1070      C1071   1.405       .  A
C1070     Br1086   1.920       .  S
C1071      C1072   1.402       .  A
C1071      H1075   1.083       .  S
C1072      C1076   1.499       .  S
C1072      C1073   1.414       .  A
C1073      C1074   1.412       .  A
C1073     Br1085   1.917       .  S
C1074      H1077   1.083       .  S
C1076      C1078   1.403       .  A
C1076      C1082   1.413       .  A
C1078      C1079   1.402       .  A
C1078      H1083   1.084       .  S
C1079      C1080   1.415       .  A
C1079     Br1087   1.922       .  S
C1080      C1081   1.407       .  A
C1081      C1082   1.413       .  A
C1081      H1084   1.083       .  S
C1082     Br1088   1.915       .  S
C1089      C1090   1.414       .  A
C1089      C1094   1.409       .  A
C1090      C1091   1.405       .  A
C1090     Br1106   1.921       .  S
C1091      C1092   1.405       .  A
C1091      H1095   1.084       .  S
C1092      C1096   1.497       .  S
C1092      C1093   1.410       .  A
C1093      C1094   1.409       .  A
C1093     Br1105   1.916       .  S
C1094      H1097   1.083       .  S
C1096      C1098   1.407       .  A
C1096      C1102   1.409       .  A
C1098      C1099   1.411       .  A
C1098      H1103   1.083       .  S
C1099      C1100   1.412       .  A
C1099     Br1107   1.918       .  S
C1100      C1101   1.406       .  A
C1101      C1102   1.403       .  A
C1101      H1104   1.083       .  S
C1102     Br1108   1.918       .  S
C1109      C1110   1.416       .  A
C1109      C1114   1.408       .  A
C1110      C1111   1.401       .  A
C1110     Br1126   1.922       .  S
C1111      C1112   1.403       .  A
C1111      H1115   1.084       .  S
C1112      C1116   1.473       .  S
C1112      C1113   1.403       .  A
C1113      C1114   1.393       .  A
C1113     Br1125   1.920       .  S
C1114      H1117   1.083       .  S
C1116      C1118   1.401       .  A
C1116      C1122   1.409       .  A
C1118      C1119   1.395   1_556  A
C1118      H1123   1.084       .  S
C1119      C1120   1.407       .  A
C1119     Br1127   1.919       .  S
C1120      C1121   1.402       .  A
C1121      C1122   1.399   1_554  A
C1121      H1124   1.084       .  S
C1122     Br1128   1.919       .  S
C1129      C1130   1.415       .  A
C1129      C1134   1.411       .  A
C1130      C1131   1.402       .  A
C1130     Br1146   1.919       .  S
C1131      C1132   1.402       .  A
C1131      H1135   1.084       .  S
C1132      C1136   1.471       .  S
C1132      C1133   1.401       .  A
C1133      C1134   1.392       .  A
C1133     Br1145   1.920       .  S
C1134      H1137   1.083       .  S
C1136      C1138   1.401       .  A
C1136      C1142   1.406       .  A
C1138      C1139   1.395       .  A
C1138      H1143   1.084       .  S
C1139      C1140   1.408       .  A
C1139     Br1147   1.919       .  S
C1140      C1141   1.404       .  A
C1141      C1142   1.399       .  A
C1141      H1144   1.084       .  S
C1142     Br1148   1.917       .  S
C1149      C1150   1.412       .  A
C1149      C1154   1.407       .  A
C1150      C1151   1.403       .  A
C1150     Br1166   1.919       .  S
C1151      C1152   1.403       .  A
C1151      H1155   1.084       .  S
C1152      C1156   1.497       .  S
C1152      C1153   1.412       .  A
C1153      C1154   1.412       .  A
C1153     Br1165   1.916       .  S
C1154      H1157   1.083       .  S
C1156      C1158   1.402       .  A
C1156      C1162   1.414       .  A
C1158      C1159   1.404       .  A
C1158      H1163   1.083       .  S
C1159      C1160   1.416       .  A
C1159     Br1167   1.921       .  S
C1160      C1161   1.406       .  A
C1161      C1162   1.411       .  A
C1161      H1164   1.083       .  S
C1162     Br1168   1.917       .  S
C1169      C1170   1.414       .  A
C1169      C1174   1.407   1_556  A
C1170      C1171   1.410   1_556  A
C1170     Br1186   1.918       .  S
C1171      C1172   1.406       .  A
C1171      H1175   1.083       .  S
C1172      C1176   1.487       .  S
C1172      C1173   1.406       .  A
C1173      C1174   1.397       .  A
C1173     Br1185   1.920       .  S
C1174      H1177   1.084   1_554  S
C1176      C1178   1.403       .  A
C1176      C1182   1.404       .  A
C1178      C1179   1.405       .  A
C1178      H1183   1.084       .  S
C1179      C1180   1.419       .  A
C1179     Br1187   1.921       .  S
C1180      C1181   1.413       .  A
C1181      C1182   1.403       .  A
C1181      H1184   1.082       .  S
C1182     Br1188   1.918   1_554  S
C1189      C1190   1.425       .  A
C1189      C1194   1.409       .  A
C1190      C1191   1.406       .  A
C1190     Br1206   1.922       .  S
C1191      C1192   1.399       .  A
C1191      H1195   1.083       .  S
C1192      C1196   1.486       .  S
C1192      C1193   1.407       .  A
C1193      C1194   1.400       .  A
C1193     Br1205   1.920       .  S
C1194      H1197   1.083       .  S
C1196      C1198   1.405       .  A
C1196      C1202   1.407       .  A
C1198      C1199   1.405       .  A
C1198      H1203   1.083       .  S
C1199      C1200   1.411       .  A
C1199     Br1207   1.918       .  S
C1200      C1201   1.405       .  A
C1201      C1202   1.401       .  A
C1201      H1204   1.084       .  S
C1202     Br1208   1.918       .  S
C1209      C1210   1.412       .  A
C1209      C1214   1.408       .  A
C1210      C1211   1.406       .  A
C1210     Br1226   1.919       .  S
C1211      C1212   1.407       .  A
C1211      H1215   1.083       .  S
C1212      C1216   1.496   1_565  S
C1212      C1213   1.409       .  A
C1213      C1214   1.406       .  A
C1213     Br1225   1.917       .  S
C1214      H1217   1.083       .  S
C1216      C1218   1.409       .  A
C1216      C1222   1.410       .  A
C1218      C1219   1.412       .  A
C1218      H1223   1.083       .  S
C1219      C1220   1.411       .  A
C1219     Br1227   1.917       .  S
C1220      C1221   1.405       .  A
C1221      C1222   1.400       .  A
C1221      H1224   1.084       .  S
C1222     Br1228   1.921   1_545  S
C1229      C1230   1.420       .  A
C1229      C1234   1.409       .  A
C1230      C1231   1.402       .  A
C1230     Br1246   1.922       .  S
C1231      C1232   1.401       .  A
C1231      H1235   1.084       .  S
C1232      C1236   1.489       .  S
C1232      C1233   1.409       .  A
C1233      C1234   1.404       .  A
C1233     Br1245   1.918       .  S
C1234      H1237   1.083       .  S
C1236      C1238   1.402       .  A
C1236      C1242   1.411       .  A
C1238      C1239   1.399       .  A
C1238      H1243   1.084       .  S
C1239      C1240   1.413       .  A
C1239     Br1247   1.922       .  S
C1240      C1241   1.406       .  A
C1241      C1242   1.407       .  A
C1241      H1244   1.083       .  S
C1242     Br1248   1.917       .  S
C1249      C1250   1.418       .  A
C1249      C1254   1.407       .  A
C1250      C1251   1.393   1_554  A
C1250     Br1266   1.920       .  S
C1251      C1252   1.395       .  A
C1251      H1255   1.084       .  S
C1252      C1256   1.469       .  S
C1252      C1253   1.405       .  A
C1253      C1254   1.400   1_556  A
C1253     Br1265   1.917       .  S
C1254      H1257   1.083       .  S
C1256      C1258   1.400       .  A
C1256      C1262   1.404       .  A
C1258      C1259   1.398       .  A
C1258      H1263   1.084       .  S
C1259      C1260   1.412       .  A
C1259     Br1267   1.919       .  S
C1260      C1261   1.405       .  A
C1261      C1262   1.395       .  A
C1261      H1264   1.084       .  S
C1262     Br1268   1.919       .  S
C1269      C1270   1.416       .  A
C1269      C1274   1.407       .  A
C1270      C1271   1.394       .  A
C1270     Br1286   1.923       .  S
C1271      C1272   1.398       .  A
C1271      H1275   1.084       .  S
C1272      C1276   1.474       .  S
C1272      C1273   1.407       .  A
C1273      C1274   1.400       .  A
C1273     Br1285   1.919       .  S
C1274      H1277   1.083       .  S
C1276      C1278   1.400       .  A
C1276      C1282   1.405       .  A
C1278      C1279   1.398       .  A
C1278      H1283   1.084       .  S
C1279      C1280   1.416       .  A
C1279     Br1287   1.917       .  S
C1280      C1281   1.408       .  A
C1281      C1282   1.396       .  A
C1281      H1284   1.083       .  S
C1282     Br1288   1.920       .  S
C1289      C1290   1.408       .  A
C1289      C1294   1.404       .  A
C1290      C1291   1.404       .  A
C1290     Br1306   1.917       .  S
C1291      C1292   1.404       .  A
C1291      H1295   1.083       .  S
C1292      C1296   1.484       .  S
C1292      C1293   1.409       .  A
C1293      C1294   1.401       .  A
C1293     Br1305   1.919       .  S
C1294      H1297   1.084       .  S
C1296      C1298   1.399       .  A
C1296      C1302   1.403       .  A
C1298      C1299   1.402       .  A
C1298      H1303   1.084       .  S
C1299      C1300   1.423       .  A
C1299     Br1307   1.920       .  S
C1300      C1301   1.413       .  A
C1301      C1302   1.404       .  A
C1301      H1304   1.083       .  S
C1302     Br1308   1.916       .  S
C1309      C1310   1.411       .  A
C1309      C1314   1.405       .  A
C1310      C1311   1.410       .  A
C1310     Br1326   1.917       .  S
C1311      C1312   1.406       .  A
C1311      H1315   1.083       .  S
C1312      C1316   1.497   1_545  S
C1312      C1313   1.411       .  A
C1313      C1314   1.406       .  A
C1313     Br1325   1.919   1_545  S
C1314      H1317   1.084       .  S
C1316      C1318   1.406       .  A
C1316      C1322   1.409       .  A
C1318      C1319   1.408       .  A
C1318      H1323   1.083       .  S
C1319      C1320   1.413       .  A
C1319     Br1327   1.918       .  S
C1320      C1321   1.409       .  A
C1321      C1322   1.407       .  A
C1321      H1324   1.084       .  S
C1322     Br1328   1.917       .  S
C1329      C1330   1.413       .  A
C1329      C1334   1.404       .  A
C1330      C1331   1.396       .  A
C1330     Br1346   1.922       .  S
C1331      C1332   1.400       .  A
C1331      H1335   1.084       .  S
C1332      C1336   1.478       .  S
C1332      C1333   1.408       .  A
C1333      C1334   1.404       .  A
C1333     Br1345   1.917       .  S
C1334      H1337   1.083       .  S
C1336      C1338   1.399       .  A
C1336      C1342   1.406       .  A
C1338      C1339   1.400       .  A
C1338      H1343   1.084       .  S
C1339      C1340   1.420       .  A
C1339     Br1347   1.922       .  S
C1340      C1341   1.408       .  A
C1341      C1342   1.399       .  A
C1341      H1344   1.083       .  S
C1342     Br1348   1.919       .  S
C1349      C1350   1.416       .  A
C1349      C1354   1.409       .  A
C1350      C1351   1.408       .  A
C1350     Br1366   1.919       .  S
C1351      C1352   1.406       .  A
C1351      H1355   1.083       .  S
C1352      C1356   1.494       .  S
C1352      C1353   1.408       .  A
C1353      C1354   1.401       .  A
C1353     Br1365   1.920       .  S
C1354      H1357   1.083       .  S
C1356      C1358   1.405       .  A
C1356      C1362   1.407       .  A
C1358      C1359   1.407       .  A
C1358      H1363   1.084       .  S
C1359      C1360   1.421       .  A
C1359     Br1367   1.921       .  S
C1360      C1361   1.412       .  A
C1361      C1362   1.402       .  A
C1361      H1364   1.083       .  S
C1362     Br1368   1.919       .  S
C1369      C1370   1.415       .  A
C1369      C1374   1.404       .  A
C1370      C1371   1.403       .  A
C1370     Br1386   1.921       .  S
C1371      C1372   1.403       .  A
C1371      H1375   1.083       .  S
C1372      C1376   1.497       .  S
C1372      C1373   1.414       .  A
C1373      C1374   1.408       .  A
C1373     Br1385   1.917       .  S
C1374      H1377   1.083       .  S
C1376      C1378   1.404       .  A
C1376      C1382   1.409       .  A
C1378      C1379   1.404       .  A
C1378      H1383   1.084       .  S
C1379      C1380   1.420       .  A
C1379     Br1387   1.923       .  S
C1380      C1381   1.410       .  A
C1381      C1382   1.408       .  A
C1381      H1384   1.083       .  S
C1382     Br1388   1.917       .  S
C1389      C1390   1.409       .  A
C1389      C1394   1.406       .  A
C1390      C1391   1.400       .  A
C1390     Br1406   1.919       .  S
C1391      C1392   1.403       .  A
C1391      H1395   1.084       .  S
C1392      C1396   1.493       .  S
C1392      C1393   1.413       .  A
C1393      C1394   1.409       .  A
C1393     Br1405   1.918       .  S
C1394      H1397   1.084       .  S
C1396      C1398   1.401       .  A
C1396      C1402   1.407       .  A
C1398      C1399   1.402       .  A
C1398      H1403   1.084       .  S
C1399      C1400   1.424       .  A
C1399     Br1407   1.924       .  S
C1400      C1401   1.414       .  A
C1401      C1402   1.409       .  A
C1401      H1404   1.083       .  S
C1402     Br1408   1.917       .  S
C1409      C1410   1.412       .  A
C1409      C1414   1.406       .  A
C1410      C1411   1.412       .  A
C1410     Br1426   1.917       .  S
C1411      C1412   1.409       .  A
C1411      H1415   1.083       .  S
C1412      C1416   1.495   1_655  S
C1412      C1413   1.409       .  A
C1413      C1414   1.399       .  A
C1413     Br1425   1.921   1_655  S
C1414      H1417   1.084       .  S
C1416      C1418   1.409       .  A
C1416      C1422   1.407       .  A
C1418      C1419   1.409       .  A
C1418      H1423   1.083       .  S
C1419      C1420   1.412       .  A
C1419     Br1427   1.918       .  S
C1420      C1421   1.412       .  A
C1421      C1422   1.403       .  A
C1421      H1424   1.084       .  S
C1422     Br1428   1.919       .  S
C1429      C1430   1.414       .  A
C1429      C1434   1.402       .  A
C1430      C1431   1.396       .  A
C1430     Br1446   1.923       .  S
C1431      C1432   1.399       .  A
C1431      H1435   1.084       .  S
C1432      C1436   1.473       .  S
C1432      C1433   1.408       .  A
C1433      C1434   1.399       .  A
C1433     Br1445   1.918       .  S
C1434      H1437   1.083       .  S
C1436      C1438   1.398       .  A
C1436      C1442   1.409       .  A
C1438      C1439   1.394   1_556  A
C1438      H1443   1.084       .  S
C1439      C1440   1.411       .  A
C1439     Br1447   1.921       .  S
C1440      C1441   1.403       .  A
C1441      C1442   1.401   1_554  A
C1441      H1444   1.083       .  S
C1442     Br1448   1.918       .  S
C1449      C1450   1.416       .  A
C1449      C1454   1.408       .  A
C1450      C1451   1.403       .  A
C1450     Br1466   1.920       .  S
C1451      C1452   1.404       .  A
C1451      H1455   1.083       .  S
C1452      C1456   1.474       .  S
C1452      C1453   1.403       .  A
C1453      C1454   1.389       .  A
C1453     Br1465   1.922       .  S
C1454      H1457   1.083       .  S
C1456      C1458   1.402       .  A
C1456      C1462   1.407       .  A
C1458      C1459   1.393       .  A
C1458      H1463   1.084       .  S
C1459      C1460   1.404       .  A
C1459     Br1467   1.912       .  S
C1460      C1461   1.405       .  A
C1461      C1462   1.400       .  A
C1461      H1464   1.082       .  S
C1462     Br1468   1.919       .  S
C1469      C1470   1.422       .  A
C1469      C1474   1.413       .  A
C1470      C1471   1.407       .  A
C1470     Br1486   1.921       .  S
C1471      C1472   1.403       .  A
C1471      H1475   1.084       .  S
C1472      C1476   1.492       .  S
C1472      C1473   1.406       .  A
C1473      C1474   1.404       .  A
C1473     Br1485   1.917       .  S
C1474      H1477   1.083       .  S
C1476      C1478   1.408       .  A
C1476      C1482   1.408       .  A
C1478      C1479   1.411       .  A
C1478      H1483   1.083       .  S
C1479      C1480   1.411       .  A
C1479     Br1487   1.916       .  S
C1480      C1481   1.406       .  A
C1481      C1482   1.400       .  A
C1481      H1484   1.084       .  S
C1482     Br1488   1.919       .  S
C1489      C1490   1.417       .  A
C1489      C1494   1.413       .  A
C1490      C1491   1.406       .  A
C1490     Br1506   1.920       .  S
C1491      C1492   1.405       .  A
C1491      H1495   1.084       .  S
C1492      C1496   1.488       .  S
C1492      C1493   1.405       .  A
C1493      C1494   1.401       .  A
C1493     Br1505   1.918       .  S
C1494      H1497   1.083       .  S
C1496      C1498   1.405       .  A
C1496      C1502   1.410       .  A
C1498      C1499   1.405       .  A
C1498      H1503   1.083       .  S
C1499      C1500   1.408       .  A
C1499     Br1507   1.916       .  S
C1500      C1501   1.405       .  A
C1501      C1502   1.401       .  A
C1501      H1504   1.084       .  S
C1502     Br1508   1.919       .  S
C1509      C1510   1.410       .  A
C1509      C1514   1.402       .  A
C1510      C1511   1.402       .  A
C1510     Br1526   1.917       .  S
C1511      C1512   1.405       .  A
C1511      H1515   1.084       .  S
C1512      C1516   1.485       .  S
C1512      C1513   1.409       .  A
C1513      C1514   1.399       .  A
C1513     Br1525   1.919       .  S
C1514      H1517   1.084       .  S
C1516      C1518   1.402       .  A
C1516      C1522   1.409       .  A
C1518      C1519   1.404       .  A
C1518      H1523   1.083       .  S
C1519      C1520   1.414       .  A
C1519     Br1527   1.913       .  S
C1520      C1521   1.408       .  A
C1521      C1522   1.398       .  A
C1521      H1524   1.083       .  S
C1522     Br1528   1.922       .  S
C1529      C1530   1.411       .  A
C1529      C1534   1.402       .  A
C1530      C1531   1.404       .  A
C1530     Br1546   1.918       .  S
C1531      C1532   1.402       .  A
C1531      H1535   1.083       .  S
C1532      C1536   1.488   1_655  S
C1532      C1533   1.412       .  A
C1533      C1534   1.404       .  A
C1533     Br1545   1.919   1_655  S
C1534      H1537   1.083       .  S
C1536      C1538   1.406       .  A
C1536      C1542   1.407       .  A
C1538      C1539   1.404       .  A
C1538      H1543   1.083   1_455  S
C1539      C1540   1.408       .  A
C1539     Br1547   1.918       .  S
C1540      C1541   1.408       .  A
C1541      C1542   1.403       .  A
C1541      H1544   1.084       .  S
C1542     Br1548   1.918       .  S
