geometry optimzed in LAMMPS
_audit_creation_date              2020-11-30 
_audit_creation_method            'lammps2cif' 
_symmetry_space_group_name_H-M    'P1' 
_symmetry_Int_Tables_number       1 
_symmetry_cell_setting            triclinic 
loop_ 
_symmetry_equiv_pos_as_xyz 
  x,y,z 
_cell_length_a                    60.54735114 
_cell_length_b                    21.70472499835752 
_cell_length_c                    38.62230903624843 
_cell_angle_alpha                 93.58585633039935 
_cell_angle_beta                  90.30255277430788 
_cell_angle_gamma                 88.7170844166116 
loop_ 
_atom_site_label 
_atom_site_type_symbol 
_atom_site_fract_x 
_atom_site_fract_y 
_atom_site_fract_z 
_atom_site_charge 
N1          N  0.12248248  0.40498194  0.37517307    -0.36400
N2          N  0.15604301  0.31003311  0.38160622    -0.56900
N3          N  0.12530197  0.21213584  0.36612687    -0.36400
N4          N  0.09110885  0.30790725  0.35804326    -0.56900
C5          C  0.13735402  0.43616346  0.39536958     0.27200
C6          C  0.10310967  0.43692436  0.37796338     0.27200
C7          C  0.14182032  0.18093804  0.38174408     0.27200
C8          C  0.10683730  0.17848037  0.36785399     0.27200
C9          C  0.16836729  0.36046475  0.38769119     0.35800
C10         C  0.17014024  0.26106175  0.37993726     0.35800
C11         C  0.07996156  0.35807104  0.34680689     0.35800
C12         C  0.08079913  0.25658588  0.34473996     0.35800
C13         C  0.12764060  0.48963819  0.41016895    -0.21700
C14         C  0.10607385  0.49028982  0.39926593    -0.21700
C15         C  0.13409363  0.12561177  0.39219566    -0.21700
C16         C  0.11213053  0.12355092  0.38307030    -0.21700
C17         C  0.19060221  0.34356165  0.38828592    -0.22700
C18         C  0.19172258  0.28069819  0.38294498    -0.22700
C19         C  0.06271093  0.33822916  0.32546981    -0.22700
C20         C  0.06311442  0.27439649  0.32442600    -0.22700
C21         C  0.15948531  0.41766147  0.40087339    -0.18100
C22         C  0.08355060  0.42039346  0.35970693    -0.18100
C23         C  0.08581854  0.19512352  0.35432230    -0.18100
C24         C  0.16363929  0.20144517  0.38707887    -0.18100
H25         H  0.13528311  0.52461647  0.42716684     0.14800
H26         H  0.09432235  0.52673758  0.40667248     0.14800
H27         H  0.14334731  0.09019890  0.40492948     0.14800
H28         H  0.10156094  0.08533380  0.38730617     0.14800
H29         H  0.20455235  0.37238170  0.39461390     0.13100
H30         H  0.20654090  0.25227663  0.38493994     0.13100
H31         H  0.05036968  0.36646897  0.31324022     0.13100
H32         H  0.05123308  0.24492134  0.31106061     0.13100
H33         H  0.12564154  0.36666146  0.35824775     0.26400
H34         H  0.12679460  0.25231654  0.35308733     0.26400
O35         O  0.01135473  0.00332886  0.32210943    -0.72700
O36         O  0.05855370  0.13279141  0.32367229    -0.73700
O37         O  0.05760923  0.99968926  0.30999508    -0.62300
O38         O  0.01241940  0.13738913  0.33681733    -0.70700
O39         O  0.01751282  0.12056959  0.39234481    -0.70300
O40         O  0.06261329  0.98467515  0.36577488    -0.61500
O41         O  0.06365390  0.11851599  0.37941998    -0.74000
O42         O  0.01626282  0.98753892  0.37769642    -0.72800
Cu43       Cu  0.03471845  0.06868927  0.32124187     1.04600
Cu44       Cu  0.04026996  0.05238912  0.38070167     1.04300
C45         C  0.00642483  0.97442635  0.34885014     0.93500
C46         C  0.06838650  0.14685433  0.35230801     0.92600
C47         C  0.06684445  0.96967962  0.33390615     0.84800
C48         C  0.00833085  0.15160529  0.36890990     0.91000
O49         O  0.01191752  0.48510561  0.33110966    -0.72700
O50         O  0.05889974  0.61152589  0.31448211    -0.73700
O51         O  0.05861886  0.48064852  0.32573317    -0.62300
O52         O  0.01245090  0.61637309  0.31861698    -0.70700
O53         O  0.01381120  0.64092307  0.37507351    -0.70300
O54         O  0.05983344  0.50379705  0.38229960    -0.61500
O55         O  0.06053833  0.63527305  0.37113980    -0.74000
O56         O  0.01360196  0.51143011  0.38749519    -0.72800
Cu57       Cu  0.03533814  0.54770221  0.32049090     1.04600
Cu58       Cu  0.03707247  0.57361246  0.38092169     1.04300
C59         C  0.00590377  0.47745873  0.36229195     0.93500
C60         C  0.06666231  0.64427701  0.34028342     0.92600
C61         C  0.06632720  0.47014239  0.35566656     0.84800
C62         C  0.00599043  0.65047261  0.34501739     0.91000
N63         N  0.15084341  0.78810745  0.28991757    -0.36400
N64         N  0.12158426  0.70254679  0.31689024    -0.56900
N65         N  0.08932713  0.80456022  0.32955093    -0.36400
N66         N  0.11926715  0.88986270  0.30092623    -0.56900
C67         C  0.16010037  0.73284879  0.27940721     0.27200
C68         C  0.15826791  0.82922787  0.26807559     0.32000
C69         C  0.07625737  0.75430664  0.32982163     0.27200
C70         C  0.07597284  0.85533785  0.32657081     0.27200
C71         C  0.13993322  0.66582574  0.31623100     0.35800
C72         C  0.10569344  0.67197646  0.33237075     0.35800
C73         C  0.13652356  0.92149778  0.28971310     0.35800
C74         C  0.10423459  0.93211592  0.31364866     0.35800
C75         C  0.17320968  0.73900925  0.25078164    -0.21700
C76         C  0.17206357  0.79948954  0.24347220    -0.21700
C77         C  0.05440968  0.77365606  0.32682414    -0.21700
C78         C  0.05420653  0.83715587  0.32519519    -0.21700
C79         C  0.13594019  0.61187054  0.33215963    -0.22700
C80         C  0.11401379  0.61527112  0.34176175    -0.22700
C81         C  0.13250134  0.98437852  0.29509114    -0.22700
C82         C  0.11202217  0.99120180  0.31049568    -0.22700
C83         C  0.15877957  0.67790673  0.29679087    -0.18100
C84         C  0.15453696  0.89369710  0.27129083    -0.18100
C85         C  0.08288843  0.91762909  0.32496830    -0.18100
C86         C  0.08336082  0.69196934  0.33441725    -0.18100
H87         H  0.18304300  0.70362957  0.23720761     0.14800
H88         H  0.18084101  0.81921868  0.22272200     0.14800
H89         H  0.04010380  0.74470522  0.32549436     0.14800
H90         H  0.03973513  0.86647237  0.32212250     0.14800
H91         H  0.14713430  0.57274202  0.33448518     0.13100
H92         H  0.10498210  0.57939983  0.35316947     0.13100
H93         H  0.14296188  0.02125486  0.28788296     0.13100
H94         H  0.10355785  0.03461839  0.31748425     0.13100
H95         H  0.14250453  0.79848916  0.31314494     0.26400
H96         H  0.10625372  0.80506645  0.33430754     0.26400
C97         C  0.76984850  0.43217189  0.12206865     0.86700
C98         C  0.75516927  0.48635584  0.11230821    -0.53500
C99         C  0.76556154  0.53959645  0.10623751     0.09600
C100        C  0.79102459  0.53327606  0.11024067     0.20600
C101        C  0.78680866  0.42399320  0.09222496    -0.54200
C102        C  0.79772906  0.47696521  0.08559059     0.09700
C103        C  0.78268649  0.46026632  0.15344252    -0.53800
C104        C  0.79458697  0.51072153  0.14722370     0.10300
H105        H  0.73737539  0.48261329  0.10998799     0.14800
H106        H  0.80021267  0.57554235  0.10560250     0.00600
H107        H  0.78954467  0.38059794  0.07716898     0.15100
H108        H  0.78226286  0.44384273  0.17924543     0.14900
C109        C  0.79932349  0.06082770  0.06654231     0.86700
C110        C  0.77890409  0.02608964  0.05565803    -0.53500
C111        C  0.77252600  0.98429114  0.07794583     0.09600
C112        C  0.78731201  0.98200120  0.11095220     0.20600
C113        C  0.79250832  0.09032684  0.10383593    -0.54200
C114        C  0.78553221  0.04807557  0.12718610     0.09700
C115        C  0.81680466  0.01147850  0.07422966    -0.53800
C116        C  0.81212332  0.97550604  0.10013396     0.10300
H117        H  0.76934321  0.03625598  0.03270057     0.14800
H118        H  0.78187457  0.94523769  0.12737274     0.00600
H119        H  0.79407286  0.13816946  0.11170851     0.15100
H120        H  0.83367809  0.01415252  0.06487767     0.14900
N121        N  0.64984024  0.19146473  0.28045234    -0.36400
N122        N  0.61530354  0.28238007  0.28921915    -0.56900
N123        N  0.58936888  0.18883564  0.31917624    -0.36400
N124        N  0.62583350  0.09716259  0.31104429    -0.56900
C125        C  0.65916888  0.24356262  0.27087752     0.27200
C126        C  0.66646078  0.15202047  0.28803563     0.27200
C127        C  0.58095825  0.24252401  0.33484171     0.27200
C128        C  0.58365995  0.14095384  0.33821907     0.27200
C129        C  0.62578852  0.30535145  0.26225436     0.35800
C130        C  0.59551408  0.31165519  0.29230996     0.35800
C131        C  0.64337292  0.06270773  0.29891399     0.35800
C132        C  0.60897029  0.05830451  0.31454011     0.35800
C133        C  0.68186438  0.23876878  0.27352027    -0.21700
C134        C  0.68653008  0.18126346  0.28468183    -0.21700
C135        C  0.57047312  0.22793710  0.36512475    -0.21700
C136        C  0.57193924  0.16430748  0.36695297    -0.21700
C137        C  0.61272827  0.34979319  0.24768101    -0.22700
C138        C  0.59357642  0.35461276  0.26701968    -0.22700
C139        C  0.63799525  0.00091750  0.29617771    -0.22700
C140        C  0.61611712  0.99808619  0.30590330    -0.22700
C141        C  0.64773395  0.28916268  0.25341687    -0.18100
C142        C  0.66387153  0.08761886  0.28988355    -0.18100
C143        C  0.58815742  0.07696963  0.32876978    -0.18100
C144        C  0.58080179  0.30197828  0.31987691    -0.18100
H145        H  0.69382380  0.27188394  0.26623873     0.14800
H146        H  0.70304850  0.16274895  0.28763486     0.14800
H147        H  0.56194197  0.25895411  0.38375340     0.14800
H148        H  0.56503653  0.13845500  0.38718894     0.14800
H149        H  0.61682052  0.37698396  0.22614904     0.13100
H150        H  0.57992977  0.38562319  0.26198087     0.13100
H151        H  0.64860960  0.96219332  0.28765282     0.13100
H152        H  0.60677856  0.95636440  0.30712662     0.13100
H153        H  0.63363132  0.17973086  0.27501631     0.26400
H154        H  0.59642924  0.18360459  0.29468564     0.26400
N155        N  0.59095689  0.69550836  0.37715455    -0.36400
N156        N  0.62256650  0.79492098  0.39258114    -0.56900
N157        N  0.65031033  0.70381647  0.42127746    -0.36400
N158        N  0.62040385  0.60383414  0.40693834    -0.56900
C159        C  0.58356561  0.74273909  0.35798817     0.27200
C160        C  0.58375870  0.64076714  0.36203046     0.27200
C161        C  0.66427032  0.75128139  0.42130736     0.27200
C162        C  0.66224629  0.65384222  0.42965891     0.27200
C163        C  0.60483673  0.83018556  0.38500279     0.35800
C164        C  0.63709095  0.83310438  0.40906816     0.35800
C165        C  0.60178054  0.57080993  0.40315082     0.35800
C166        C  0.63209524  0.58141306  0.43361962     0.35800
C167        C  0.57201860  0.71765423  0.32969743    -0.21700
C168        C  0.57224216  0.65408378  0.33200702    -0.21700
C169        C  0.68561395  0.73032984  0.42799036    -0.21700
C170        C  0.68433801  0.66858755  0.43298092    -0.21700
C171        C  0.60880530  0.89178418  0.39490254    -0.22700
C172        C  0.62919282  0.89335491  0.41045528    -0.22700
C173        C  0.60229097  0.52507664  0.42704252    -0.22700
C174        C  0.62127120  0.53280420  0.44665663    -0.22700
C175        C  0.58597877  0.80772326  0.36704665    -0.18100
C176        C  0.58536152  0.58127276  0.37722813    -0.18100
C177        C  0.65276815  0.60399483  0.44505703    -0.18100
C178        C  0.65724055  0.81362768  0.42341729    -0.18100
H179        H  0.56394783  0.74247114  0.30957118     0.14800
H180        H  0.56416003  0.62227292  0.31374631     0.14800
H181        H  0.70034329  0.75713992  0.43181157     0.14800
H182        H  0.69770140  0.63952971  0.44184899     0.14800
H183        H  0.59844732  0.93200115  0.39108512     0.13100
H184        H  0.63728922  0.93403182  0.42149688     0.13100
H185        H  0.59038695  0.49015237  0.43120625     0.13100
H186        H  0.62666511  0.50520530  0.46764118     0.13100
H187        H  0.59811839  0.70141194  0.40173815     0.26400
H188        H  0.63322456  0.70825082  0.42406964     0.26400
N189        N  0.44207201  0.73246328  0.45369007    -0.36400
N190        N  0.46852140  0.62756842  0.43204209    -0.56900
N191        N  0.48771594  0.70472388  0.37921882    -0.36400
N192        N  0.46164696  0.81044476  0.40586256    -0.56900
C193        C  0.43868754  0.69656528  0.48035562     0.27200
C194        C  0.43313266  0.78848498  0.46257341     0.27200
C195        C  0.50108521  0.65343177  0.37889481     0.27200
C196        C  0.50018772  0.75302025  0.37029857     0.27200
C197        C  0.45396860  0.59988199  0.45220341     0.35800
C198        C  0.47767825  0.58286525  0.41055529     0.35800
C199        C  0.44270011  0.84319335  0.41157960     0.35800
C200        C  0.47202503  0.83630562  0.37994177     0.35800
C201        C  0.42810887  0.73104559  0.50710917    -0.21700
C202        C  0.42441005  0.78909778  0.49565751    -0.21700
C203        C  0.52208774  0.66920187  0.36940780    -0.21700
C204        C  0.52155829  0.73175606  0.36432975    -0.21700
C205        C  0.45413460  0.53691296  0.44403290    -0.22700
C206        C  0.46916811  0.52603729  0.41752545    -0.22700
C207        C  0.44101238  0.89089006  0.38957581    -0.22700
C208        C  0.46012074  0.88765857  0.37017563    -0.22700
C209        C  0.44077053  0.63163213  0.47791219    -0.18100
C210        C  0.42798273  0.83210282  0.43827104    -0.18100
C211        C  0.49274043  0.81558867  0.36707616    -0.18100
C212        C  0.49494446  0.59273419  0.38710091    -0.18100
H213        H  0.42214079  0.71480579  0.53121091     0.14800
H214        H  0.41516835  0.82629138  0.50922879     0.14800
H215        H  0.53641507  0.63884233  0.36797040     0.14800
H216        H  0.53530220  0.75931974  0.35775252     0.14800
H217        H  0.44437016  0.50266242  0.45574885     0.13100
H218        H  0.47332820  0.48141391  0.40488464     0.13100
H219        H  0.42798438  0.92575292  0.38882527     0.13100
H220        H  0.46460989  0.91890140  0.35099177     0.13100
H221        H  0.44579225  0.71690259  0.42833622     0.26400
H222        H  0.47068971  0.70517065  0.38298074     0.26400
C223        C  0.29268241  0.88200792  0.04340462     0.86700
C224        C  0.31197155  0.90614869  0.06597910    -0.53500
C225        C  0.30702764  0.95666023  0.08727862     0.09600
C226        C  0.28307737  0.98178894  0.08254909     0.20600
C227        C  0.27361861  0.87505721  0.06952361    -0.54200
C228        C  0.26869150  0.92730359  0.09110319     0.09700
C229        C  0.28593596  0.93799915  0.02329348    -0.53800
C230        C  0.27919512  0.98851526  0.04275051     0.10300
H231        H  0.32812278  0.88357569  0.06684145     0.14800
H232        H  0.28058027  0.02468657  0.09908426     0.00600
H233        H  0.26418650  0.83327730  0.06886208     0.15100
H234        H  0.28407456  0.93693045  0.99534133     0.14900
N235        N  0.48494635  0.19909023  0.32311272    -0.36400
N236        N  0.46124729  0.10291484  0.28335775    -0.56900
N237        N  0.43310731  0.19799910  0.25778196    -0.36400
N238        N  0.45600923  0.29528370  0.29424809    -0.56900
C239        C  0.49886303  0.14905639  0.32580974     0.27200
C240        C  0.49698248  0.25121540  0.32912445     0.27200
C241        C  0.42791714  0.14967677  0.23590070     0.27200
C242        C  0.42468691  0.24902984  0.24396970     0.27200
C243        C  0.47460569  0.06556505  0.30117175     0.35800
C244        C  0.44580308  0.06665878  0.26759613     0.35800
C245        C  0.46803457  0.33118748  0.31656354     0.35800
C246        C  0.43706682  0.32699899  0.28770653     0.35800
C247        C  0.51968911  0.16984511  0.33421458    -0.21700
C248        C  0.51855162  0.23360260  0.33607344    -0.21700
C249        C  0.41673488  0.17054527  0.20725093    -0.21700
C250        C  0.41473068  0.23343516  0.21237919    -0.21700
C251        C  0.46785407  0.00498814  0.29591160    -0.22700
C252        C  0.44936371  0.00583184  0.27510276    -0.22700
C253        C  0.45691695  0.38718424  0.32369918    -0.22700
C254        C  0.43695859  0.38386579  0.30600101    -0.22700
C255        C  0.49369442  0.08497776  0.31983280    -0.18100
C256        C  0.48925205  0.31441371  0.32905905    -0.18100
C257        C  0.42117489  0.30552600  0.26309527    -0.18100
C258        C  0.42987715  0.08746069  0.24402414    -0.18100
H259        H  0.53432356  0.14144578  0.33702845     0.14800
H260        H  0.53213950  0.26404959  0.34103207     0.14800
H261        H  0.40963523  0.14330721  0.18578921     0.14800
H262        H  0.40564412  0.26384621  0.19602013     0.14800
H263        H  0.47590996  0.96408377  0.30486312     0.13100
H264        H  0.44026249  0.96604952  0.26527100     0.13100
H265        H  0.46247652  0.42586706  0.34028682     0.13100
H266        H  0.42430385  0.41981965  0.30557739     0.13100
H267        H  0.46789884  0.19774848  0.31958061     0.26400
H268        H  0.43783389  0.19522425  0.28364454     0.26400
C269        C  0.27631890  0.46553180  0.08709858     0.86700
C270        C  0.29910766  0.49027826  0.08051492    -0.53500
C271        C  0.31185314  0.50025798  0.10911960     0.09600
C272        C  0.30013165  0.48607321  0.14316011     0.20600
C273        C  0.28044162  0.40737983  0.10785287    -0.54200
C274        C  0.29312566  0.41805347  0.13700837     0.09700
C275        C  0.26564410  0.51026580  0.11476776    -0.53800
C276        C  0.27776795  0.52366957  0.14435267     0.10300
H277        H  0.30514624  0.49695778  0.05457529     0.14800
H278        H  0.31133181  0.49316949  0.16544192     0.00600
H279        H  0.27320413  0.36288465  0.10186263     0.15100
H280        H  0.24846588  0.52427845  0.11203714     0.14900
O281        O  0.51614496  0.86566687  0.32625611    -0.72700
O282        O  0.56454881  0.99197528  0.30973324    -0.73700
O283        O  0.56302796  0.86173675  0.32649354    -0.62300
O284        O  0.51708271  0.99513297  0.30643868    -0.70700
O285        O  0.51659705  0.03187185  0.36121850    -0.70300
O286        O  0.56117946  0.89381810  0.38194358    -0.61500
O287        O  0.56346392  0.02376721  0.36526392    -0.74000
O288        O  0.51458482  0.90406906  0.38072450    -0.72800
Cu289      Cu  0.54017451  0.92775229  0.31521228     1.04600
Cu290      Cu  0.53893294  0.96432843  0.37411682     1.04300
C291        C  0.50845703  0.86411037  0.35712090     0.93500
C292        C  0.57130403  0.02853414  0.33495134     0.92600
C293        C  0.56890574  0.85571026  0.35789907     0.84800
C294        C  0.51001312  0.03528780  0.32977402     0.91000
O295        O  0.56115880  0.52296274  0.33662748    -0.72700
O296        O  0.51064451  0.40295358  0.31671467    -0.73700
O297        O  0.51465229  0.53202331  0.34234137    -0.62300
O298        O  0.55746962  0.39249861  0.31147243    -0.70700
O299        O  0.56071931  0.36369353  0.36495656    -0.70300
O300        O  0.51574940  0.49873490  0.39540204    -0.61500
O301        O  0.51386345  0.36908672  0.36946567    -0.74000
O302        O  0.56231940  0.49476100  0.39032171    -0.72800
Cu303      Cu  0.53590594  0.46343600  0.32495226     1.04600
Cu304      Cu  0.53823680  0.43060711  0.38186682     1.04300
C305        C  0.56897088  0.53042422  0.36744124     0.93500
C306        C  0.50502921  0.36526046  0.33920993     0.92600
C307        C  0.50896622  0.53829049  0.37423971     0.84800
C308        C  0.56555942  0.35496613  0.33278701     0.91000
N309        N  0.92994352  0.33348735  0.43273117    -0.36400
N310        N  0.95884233  0.23030436  0.41168327    -0.56900
N311        N  0.98503807  0.31637680  0.37576171    -0.36400
N312        N  0.95501986  0.42015019  0.39981435    -0.56900
C313        C  0.92304048  0.28926990  0.45288421     0.27200
C314        C  0.92101571  0.38752328  0.44584857     0.27200
C315        C  0.99888825  0.26616515  0.37718899     0.27200
C316        C  0.99769112  0.36713511  0.37387909     0.27200
C317        C  0.94159260  0.19871818  0.42294534     0.35800
C318        C  0.97214781  0.18884236  0.39403354     0.35800
C319        C  0.93650822  0.45568098  0.40457455     0.35800
C320        C  0.96814613  0.44907147  0.37838818     0.35800
C321        C  0.91020628  0.31556098  0.47976621    -0.21700
C322        C  0.90903058  0.37760941  0.47532507    -0.21700
C323        C  0.02048672  0.28533518  0.37644236    -0.21700
C324        C  0.01972768  0.34882499  0.37469638    -0.21700
C325        C  0.94407568  0.13655166  0.41306986    -0.22700
C326        C  0.96363551  0.13012453  0.39493617    -0.22700
C327        C  0.93775189  0.50784219  0.38594813    -0.22700
C328        C  0.95814161  0.50432660  0.36994835    -0.22700
C329        C  0.92437779  0.22565349  0.44354898    -0.18100
C330        C  0.91969691  0.44217763  0.42786235    -0.18100
C331        C  0.98990885  0.42908605  0.37004670    -0.18100
C332        C  0.99248761  0.20356363  0.37923773    -0.18100
H333        H  0.90137543  0.29207065  0.49916075     0.14800
H334        H  0.89902398  0.41089373  0.49033064     0.14800
H335        H  0.03521420  0.25666441  0.37845405     0.14800
H336        H  0.03377763  0.37862029  0.37493943     0.14800
H337        H  0.93318056  0.09974704  0.41889207     0.13100
H338        H  0.97078008  0.08726167  0.38380344     0.13100
H339        H  0.92574789  0.54542327  0.38517748     0.13100
H340        H  0.96499909  0.53873532  0.35439588     0.13100
H341        H  0.93632822  0.32534312  0.40782788     0.26400
H342        H  0.96789417  0.31540010  0.37322728     0.26400
N343        N  0.98253760  0.81375923  0.34058805    -0.36400
N344        N  0.95028938  0.71608355  0.32273708    -0.56900
N345        N  0.91916186  0.81172200  0.31104959    -0.36400
N346        N  0.94994056  0.91047857  0.32937866    -0.56900
C347        C  0.99271826  0.76257814  0.35249852     0.27200
C348        C  0.99285121  0.86475823  0.35468484     0.27200
C349        C  0.90578273  0.76278909  0.30856062     0.27200
C350        C  0.90617154  0.86275728  0.31141030     0.27200
C351        C  0.96909788  0.68169548  0.32252763     0.35800
C352        C  0.93497888  0.68207985  0.30497317     0.35800
C353        C  0.96810516  0.94557035  0.33118346     0.35800
C354        C  0.93451001  0.94236688  0.31194760     0.35800
C355        C  0.00958439  0.78168714  0.37492161    -0.21700
C356        C  0.00974756  0.84556703  0.37609818    -0.21700
C357        C  0.88390535  0.78296024  0.30871727    -0.21700
C358        C  0.88416106  0.84623137  0.31035093    -0.21700
C359        C  0.96532818  0.62447227  0.30529303    -0.22700
C360        C  0.94376265  0.62503430  0.29410471    -0.22700
C361        C  0.96343674  0.00193970  0.31707979    -0.22700
C362        C  0.94230714  0.99911164  0.30417864    -0.22700
C363        C  0.98878192  0.69982509  0.34025470    -0.18100
C364        C  0.98860721  0.92713045  0.34571957    -0.18100
C365        C  0.91380032  0.91952697  0.30157583    -0.18100
C366        C  0.91302331  0.70204915  0.29931134    -0.18100
H367        H  0.02129995  0.75294601  0.38811117     0.14800
H368        H  0.02145878  0.87418883  0.39045397     0.14800
H369        H  0.86934493  0.75520963  0.30517908     0.14800
H370        H  0.86982123  0.87624956  0.30792620     0.14800
H371        H  0.97655611  0.58541539  0.30118129     0.13100
H372        H  0.93547269  0.58766371  0.27986943     0.13100
H373        H  0.97399776  0.04111027  0.31551352     0.13100
H374        H  0.93362746  0.03463173  0.29067455     0.13100
H375        H  0.97130907  0.81347148  0.32020750     0.26400
H376        H  0.93577176  0.81083832  0.30464829     0.26400
C377        C  0.30095857  0.36966446  0.16014158     0.01600
C378        C  0.29805419  0.38079863  0.19592097     0.04400
C379        C  0.31596102  0.37263232  0.21878822    -0.11700
C380        C  0.33643467  0.34995470  0.20527289     0.23700
C381        C  0.33722846  0.32526868  0.17054101    -0.12200
C382        C  0.31870616  0.33141365  0.14887934     0.05100
C383        C  0.35679377  0.34938279  0.22712965     0.27500
C384        C  0.37391132  0.39072307  0.22132624    -0.12900
C385        C  0.39499072  0.38198406  0.23642760     0.05600
C386        C  0.39862707  0.33425588  0.25911367    -0.08900
C387        C  0.38046275  0.29893128  0.26853416     0.06400
C388        C  0.36009487  0.30379966  0.25110860    -0.13300
Br389      Br  0.36377335  0.28631199  0.15187793    -0.05300
Br390      Br  0.26851279  0.39648828  0.21228267     0.00300
Br391      Br  0.41932981  0.43078517  0.22315249     0.00700
Br392      Br  0.33791681  0.24253218  0.25656516    -0.03700
Br393      Br  0.31501102  0.27741467  0.10802512     0.00800
Br394      Br  0.31260475  0.39484136  0.26757263    -0.03000
Br395      Br  0.36888456  0.45571688  0.19004736    -0.03800
Br396      Br  0.38442718  0.23815542  0.30254786     0.00100
C397        C  0.32228327  0.97460437  0.11677698     0.01600
C398        C  0.32849599  0.93062003  0.14093042     0.04400
C399        C  0.34619227  0.94128821  0.16403390    -0.11700
C400        C  0.35711295  0.99755575  0.16481544     0.23700
C401        C  0.34998048  0.04360657  0.14288831    -0.12200
C402        C  0.33284987  0.03191956  0.11864367     0.05100
C403        C  0.37667372  0.00759443  0.18761418     0.27500
C404        C  0.37397145  0.02516422  0.22311399    -0.12900
C405        C  0.39244482  0.04251252  0.24335092     0.05600
C406        C  0.41339678  0.04485744  0.22779597    -0.08900
C407        C  0.41641941  0.02119551  0.19336062     0.06400
C408        C  0.39806926  0.00208769  0.17332106    -0.13300
Br409      Br  0.36446360  0.12183764  0.14531730    -0.05300
Br410      Br  0.31285076  0.85553559  0.14363892     0.00300
Br411      Br  0.38899015  0.06687680  0.29191926     0.00700
Br412      Br  0.40195742  0.97226592  0.12560722    -0.03700
Br413      Br  0.32501318  0.09338051  0.08699962     0.00800
Br414      Br  0.35637064  0.87755072  0.19350745    -0.03000
Br415      Br  0.34485065  0.02975340  0.24332969    -0.03800
Br416      Br  0.44532239  0.02207661  0.17279837     0.00100
C417        C  0.42542632  0.59775570  0.49958329     0.01600
C418        C  0.43175742  0.58071202  0.53292924     0.04400
C419        C  0.41571945  0.56154236  0.55610310    -0.11700
C420        C  0.39331283  0.56095826  0.54621316     0.23700
C421        C  0.38709733  0.57608093  0.51247844    -0.12200
C422        C  0.40315219  0.59340097  0.48910936     0.05100
C423        C  0.37593415  0.55462384  0.07780199     0.27500
C424        C  0.36970378  0.49291022  0.07201237    -0.12900
C425        C  0.34949548  0.47369592  0.08479419     0.05600
C426        C  0.33562901  0.51526160  0.10489020    -0.08900
C427        C  0.34320534  0.57504960  0.11417578     0.06400
C428        C  0.36328300  0.59488955  0.10041921    -0.13300
Br429      Br  0.35637456  0.57471210  0.49854916    -0.05300
Br430      Br  0.46219238  0.58614215  0.54713110     0.00300
Br431      Br  0.34005791  0.39203171  0.07088960     0.00700
Br432      Br  0.37580242  0.66648278  0.60028560    -0.03700
Br433      Br  0.39457899  0.61317690  0.44285713     0.00800
Br434      Br  0.42323361  0.56744094  0.11283440    -0.03000
Br435      Br  0.38798272  0.43637894  0.04328416    -0.03800
Br436      Br  0.32496205  0.63167704  0.14250516     0.00100
C437        C  0.29838827  0.82383115  0.01942682     0.01600
C438        C  0.31736378  0.78900247  0.02745838     0.04400
C439        C  0.33537827  0.78700757  0.00458035    -0.11700
C440        C  0.33278120  0.81215231  0.97192209     0.23700
C441        C  0.31928947  0.84539498  0.46409872    -0.12200
C442        C  0.29361601  0.82504376  0.98360036     0.05100
C443        C  0.36079529  0.84398976  0.45976874     0.27500
C444        C  0.37390557  0.89468887  0.47078823    -0.12900
C445        C  0.39578002  0.89770370  0.45900075     0.05600
C446        C  0.40433988  0.85039643  0.43615062    -0.08900
C447        C  0.39001991  0.80620585  0.42062376     0.06400
C448        C  0.36847864  0.80150447  0.43330434    -0.13300
Br449      Br  0.31638582  0.87026246  0.41729056    -0.05300
Br450      Br  0.31891789  0.75057964  0.07079378     0.00300
Br451      Br  0.41487343  0.96239141  0.47646787     0.00700
Br452      Br  0.35061031  0.73280776  0.41739770    -0.03700
Br453      Br  0.27130183  0.84210659  0.46549667     0.00800
Br454      Br  0.36366434  0.75610022  0.01929171    -0.03000
Br455      Br  0.36255860  0.95675078  0.50433141    -0.03800
Br456      Br  0.40096739  0.74756645  0.38480095     0.00100
C457        C  0.75044777  0.95682145  0.07220504     0.01600
C458        C  0.73169817  0.99706113  0.07201596     0.04400
C459        C  0.71503392  0.97336830  0.54299486    -0.11700
C460        C  0.71307171  0.92540251  0.03179386     0.23700
C461        C  0.73030952  0.88157222  0.03559454    -0.12200
C462        C  0.74911509  0.89750633  0.05554717     0.05100
C463        C  0.69888256  0.89680916  0.50018738     0.27500
C464        C  0.67712785  0.88277662  0.50890818    -0.12900
C465        C  0.66224039  0.86384368  0.48261697     0.05600
C466        C  0.66948331  0.85596222  0.44787264    -0.08900
C467        C  0.69038168  0.87672870  0.43885609     0.06400
C468        C  0.70513860  0.89712965  0.46505413    -0.13300
Br469      Br  0.72876334  0.80180711  0.01113237    -0.05300
Br470      Br  0.73184262  0.07636120  0.09663302     0.00300
Br471      Br  0.63205012  0.84815132  0.49441446     0.00700
Br472      Br  0.73421259  0.92332373  0.45301568    -0.03700
Br473      Br  0.77399786  0.84100702  0.05685252     0.00800
Br474      Br  0.69238016  0.03234066  0.53044022    -0.03000
Br475      Br  0.66783073  0.88799673  0.06327185    -0.03800
Br476      Br  0.69907514  0.87309983  0.39081191     0.00100
C477        C  0.68212313  0.04786680  0.27416608     0.01600
C478        C  0.70279549  0.04613266  0.29119783     0.04400
C479        C  0.72238768  0.04504109  0.27148383    -0.11700
C480        C  0.72119374  0.03794647  0.23493574     0.23700
C481        C  0.70076680  0.02537844  0.21878878    -0.12200
C482        C  0.68117844  0.03242557  0.23811629     0.05100
C483        C  0.74076181  0.04810087  0.21296475     0.27500
C484        C  0.74255643  0.10303183  0.19568070    -0.12900
C485        C  0.75917518  0.10898944  0.17041063     0.05600
C486        C  0.77458532  0.05956933  0.16275152    -0.08900
C487        C  0.77483184  0.01087385  0.18595724     0.06400
C488        C  0.75707245  0.00219385  0.20814266    -0.13300
Br489      Br  0.69966642  0.00390715  0.16956224    -0.05300
Br490      Br  0.70391584  0.05741886  0.34106581     0.00300
Br491      Br  0.75956926  0.18468021  0.14703810     0.00700
Br492      Br  0.75410422  0.92481331  0.22980895    -0.03700
Br493      Br  0.65318156  0.02974149  0.21414319     0.00800
Br494      Br  0.75030571  0.06161849  0.29408814    -0.03000
Br495      Br  0.72078711  0.16763400  0.20516293    -0.03800
Br496      Br  0.80027651  0.95970463  0.19264409     0.00100
C497        C  0.83074312  0.96703546  0.12568692     0.01600
C498        C  0.83534510  0.90819931  0.13801615     0.04400
C499        C  0.84998871  0.90194480  0.16624994    -0.11700
C500        C  0.86108924  0.95386635  0.18092325     0.23700
C501        C  0.85911564  0.01039624  0.16562679    -0.12200
C502        C  0.84381315  0.01805781  0.13878502     0.05100
C503        C  0.87547744  0.94982897  0.21188742     0.27500
C504        C  0.86905520  0.97935138  0.24415639    -0.12900
C505        C  0.88300267  0.97623812  0.27320815     0.05600
C506        C  0.90297394  0.94235490  0.27029906    -0.08900
C507        C  0.91021241  0.91741890  0.23752772     0.06400
C508        C  0.89657292  0.92175012  0.20832087    -0.13300
Br509      Br  0.87796977  0.07761514  0.18186302    -0.05300
Br510      Br  0.82079194  0.83678944  0.11749455     0.00300
Br511      Br  0.87460378  0.01561261  0.31752508     0.00700
Br512      Br  0.90682932  0.88955219  0.16333230    -0.03700
Br513      Br  0.84217309  0.10050043  0.12217875     0.00800
Br514      Br  0.85409495  0.82304797  0.18592381    -0.03000
Br515      Br  0.84124900  0.02399312  0.24901942    -0.03800
Br516      Br  0.93839046  0.87422700  0.23284604     0.00100
C517        C  0.80883286  0.09593702  0.03622309     0.01600
C518        C  0.81513513  0.15871622  0.03927648     0.04400
C519        C  0.83221817  0.17664210  0.52065071    -0.11700
C520        C  0.84437230  0.13598263  0.49779824     0.23700
C521        C  0.83276557  0.08090276  0.98465232    -0.12200
C522        C  0.81602569  0.05980447  0.00566095     0.05100
C523        C  0.86527502  0.15476245  0.48240790     0.27500
C524        C  0.86533773  0.17871733  0.44942089    -0.12900
C525        C  0.88541878  0.19461925  0.43472751     0.05600
C526        C  0.90531407  0.18910009  0.45358554    -0.08900
C527        C  0.90537210  0.16197745  0.48569874     0.06400
C528        C  0.88538466  0.14370068  0.49981258    -0.13300
Br529      Br  0.84373975  0.03009624  0.94512476    -0.05300
Br530      Br  0.79819782  0.22050143  0.06617821     0.00300
Br531      Br  0.88577403  0.22555944  0.38906635     0.00700
Br532      Br  0.88468602  0.09336306  0.03252679    -0.03700
Br533      Br  0.80556539  0.97729974  0.99332062     0.00800
Br534      Br  0.84011284  0.26242006  0.52578731    -0.03000
Br535      Br  0.83789990  0.19022266  0.42475792    -0.03800
Br536      Br  0.93262578  0.15392667  0.51114333     0.00100
C537        C  0.75550120  0.37592735  0.12889468     0.01600
C538        C  0.73639492  0.36570818  0.10821577     0.04400
C539        C  0.71603545  0.35566386  0.12424630    -0.11700
C540        C  0.71552855  0.34441044  0.15984462     0.23700
C541        C  0.73575651  0.33786548  0.17786766    -0.12200
C542        C  0.75577094  0.35028157  0.16162561     0.05100
C543        C  0.69421540  0.33816396  0.17843557     0.27500
C544        C  0.68795048  0.38247611  0.20521354    -0.12900
C545        C  0.67106052  0.36967692  0.22852219     0.05600
C546        C  0.65939203  0.31444400  0.22375539    -0.08900
C547        C  0.66361428  0.27438521  0.19418871     0.06400
C548        C  0.68135401  0.28511663  0.17211980    -0.13300
Br549      Br  0.73630356  0.31720812  0.22577279    -0.05300
Br550      Br  0.73770509  0.37378619  0.05889878     0.00300
Br551      Br  0.66574033  0.42370463  0.26928944     0.00700
Br552      Br  0.68910050  0.22381937  0.13545219    -0.03700
Br553      Br  0.78319609  0.32253100  0.18166297     0.00800
Br554      Br  0.68894796  0.36643519  0.09857054    -0.03000
Br555      Br  0.70356415  0.45893203  0.21133954    -0.03800
Br556      Br  0.64630199  0.20118200  0.18609313     0.00100
C557        C  0.66315306  0.58823350  0.47868758     0.01600
C558        C  0.66193149  0.63374577  0.50643899     0.04400
C559        C  0.67935018  0.64014414  0.53061655    -0.11700
C560        C  0.69663266  0.59541787  0.53032505     0.23700
C561        C  0.69563079  0.54375195  0.50611576    -0.12200
C562        C  0.67963847  0.54176611  0.47937363     0.05100
C563        C  0.71534468  0.60735316  0.05002702     0.27500
C564        C  0.73688354  0.61964396  0.03857994    -0.12900
C565        C  0.75509899  0.61309418  0.06116520     0.05600
C566        C  0.75171721  0.59256085  0.09451434    -0.08900
C567        C  0.73010769  0.59814398  0.10821097     0.06400
C568        C  0.71195842  0.59851647  0.08546003    -0.13300
Br569      Br  0.71667769  0.47682648  0.50846488    -0.05300
Br570      Br  0.63710437  0.69070132  0.50905443     0.00300
Br571      Br  0.78425949  0.63412616  0.04710877     0.00700
Br572      Br  0.68315779  0.57795394  0.10209354    -0.03700
Br573      Br  0.68157350  0.47941217  0.44172512     0.00800
Br574      Br  0.68229228  0.72105535  0.06226452    -0.03000
Br575      Br  0.74102153  0.62729417  0.49237428    -0.03800
Br576      Br  0.72566856  0.59053594  0.15720321     0.00100
C577        C  0.81064403  0.53626866  0.17358128     0.01600
C578        C  0.80925284  0.59873640  0.18612159     0.04400
C579        C  0.82502815  0.62235744  0.21017301    -0.11700
C580        C  0.84265163  0.58434303  0.22088234     0.23700
C581        C  0.84348006  0.52148250  0.20981976    -0.12200
C582        C  0.82734946  0.49705039  0.18692384     0.05100
C583        C  0.86140153  0.61114544  0.24121939     0.27500
C584        C  0.87794941  0.64183379  0.22392628    -0.12900
C585        C  0.89586405  0.66721906  0.24269996     0.05600
C586        C  0.89736169  0.66209483  0.27887167    -0.08900
C587        C  0.88152298  0.62834805  0.29584325     0.06400
C588        C  0.86344413  0.60330646  0.27710907    -0.13300
Br589      Br  0.86745279  0.46924789  0.22508450    -0.05300
Br590      Br  0.78530992  0.65151764  0.17177061     0.00300
Br591      Br  0.91814128  0.71057770  0.21900020     0.00700
Br592      Br  0.84118304  0.55964791  0.30062856    -0.03700
Br593      Br  0.82997274  0.41034860  0.17206768     0.00800
Br594      Br  0.82250713  0.70656466  0.22902232    -0.03000
Br595      Br  0.87588950  0.64961059  0.17443780    -0.03800
Br596      Br  0.88436430  0.61859623  0.34493596     0.00100
C597        C  0.81404187  0.48000587  0.05651823     0.01600
C598        C  0.80697725  0.48251595  0.02164928     0.04400
C599        C  0.82126307  0.49528307  0.49730704    -0.11700
C600        C  0.84550959  0.48159851  0.00164332     0.23700
C601        C  0.85222848  0.47339700  0.03618119    -0.12200
C602        C  0.83690291  0.48043745  0.06337226     0.05100
C603        C  0.86018833  0.49835254  0.47275092     0.27500
C604        C  0.86103010  0.45080635  0.44588009    -0.12900
C605        C  0.87912160  0.44654601  0.42306637     0.05600
C606        C  0.89846668  0.47884312  0.43184051    -0.08900
C607        C  0.89667293  0.53123720  0.45519383     0.06400
C608        C  0.87668365  0.54374493  0.47339598    -0.13300
Br609      Br  0.88227110  0.44970694  0.04718748    -0.05300
Br610      Br  0.77596851  0.47970729  0.01058625     0.00300
Br611      Br  0.87956697  0.38840758  0.38333456     0.00700
Br612      Br  0.87259080  0.61978186  0.50144531    -0.03700
Br613      Br  0.84807855  0.49875131  0.10912091     0.00800
Br614      Br  0.80886545  0.51849278  0.45371018    -0.03000
Br615      Br  0.84022323  0.38455852  0.44332813    -0.03800
Br616      Br  0.92198308  0.58139531  0.46506911     0.00100
C617        C  0.16921492  0.93073731  0.25039737     0.01600
C618        C  0.19111364  0.94090540  0.26182491     0.04400
C619        C  0.20757711  0.95336236  0.23779735    -0.11700
C620        C  0.20269442  0.94872349  0.20204055     0.23700
C621        C  0.18067045  0.94125539  0.19077726    -0.12200
C622        C  0.16380229  0.93553377  0.21511750     0.05100
C623        C  0.22071539  0.94520083  0.17599039     0.27500
C624        C  0.22426390  0.99520030  0.15576956    -0.12900
C625        C  0.23896188  0.98928426  0.12748911     0.05600
C626        C  0.25126173  0.93265186  0.11965205    -0.08900
C627        C  0.24740245  0.88254376  0.14100700     0.06400
C628        C  0.23245352  0.88934095  0.16896424    -0.13300
Br629      Br  0.17404942  0.93045127  0.14182931    -0.05300
Br630      Br  0.19929223  0.92698205  0.30908774     0.00300
Br631      Br  0.23900134  0.05963623  0.09927320     0.00700
Br632      Br  0.22770413  0.82129056  0.19804138    -0.03700
Br633      Br  0.13387672  0.92187600  0.19951807     0.00800
Br634      Br  0.23718929  0.97156098  0.25331898    -0.03000
Br635      Br  0.20811468  0.07200812  0.16709408    -0.03800
Br636      Br  0.26174107  0.80264530  0.13377966     0.00100
C637        C  0.26665187  0.55875119  0.17539140     0.01600
C638        C  0.24764979  0.59621071  0.16970717     0.04400
C639        C  0.23068371  0.60281065  0.19441750    -0.11700
C640        C  0.23335584  0.57798111  0.22710691     0.23700
C641        C  0.25397270  0.55088768  0.23528675    -0.12200
C642        C  0.27107473  0.54561493  0.21029017     0.05100
C643        C  0.21544699  0.58791577  0.25364159     0.27500
C644        C  0.21753073  0.63396364  0.28088907    -0.12900
C645        C  0.19893999  0.65356547  0.30075431     0.05600
C646        C  0.17769888  0.63273956  0.29102869    -0.08900
C647        C  0.17593715  0.58262611  0.26605419     0.06400
C648        C  0.19500074  0.55842492  0.24865118    -0.13300
Br649      Br  0.25849325  0.51821440  0.28023964    -0.05300
Br650      Br  0.24594114  0.64643025  0.13036080     0.00300
Br651      Br  0.20173240  0.71815148  0.33717385     0.00700
Br652      Br  0.19280738  0.48898234  0.21522084    -0.03700
Br653      Br  0.30084786  0.53767780  0.22707657     0.00800
Br654      Br  0.20349787  0.64418030  0.18205842    -0.03000
Br655      Br  0.24488721  0.67722738  0.28785380    -0.03800
Br656      Br  0.14727736  0.55411764  0.25117860     0.00100
C657        C  0.26278646  0.46220718  0.05313663     0.01600
C658        C  0.25884179  0.40665420  0.03280276     0.04400
C659        C  0.24273892  0.40622044  0.00624744    -0.11700
C660        C  0.23121282  0.46106405  0.99905473     0.23700
C661        C  0.23750488  0.51736233  0.01538630    -0.12200
C662        C  0.25451094  0.51832785  0.04007753     0.05100
C663        C  0.20560967  0.48054625  0.47712892     0.27500
C664        C  0.20838455  0.49642854  0.44252145    -0.12900
C665        C  0.19155604  0.48408487  0.41800945     0.05600
C666        C  0.17277389  0.45235454  0.42767665    -0.08900
C667        C  0.16894772  0.44321685  0.46304014     0.06400
C668        C  0.18521661  0.45863587  0.48783432    -0.13300
Br669      Br  0.21966095  0.61190724  0.50785917    -0.05300
Br670      Br  0.27824393  0.33515498  0.03449678     0.00300
Br671      Br  0.19507223  0.50388722  0.37034075     0.00700
Br672      Br  0.18900829  0.41059176  0.03243685    -0.03700
Br673      Br  0.26790568  0.59698253  0.05186410     0.00800
Br674      Br  0.23616306  0.33066589  0.97946552    -0.03000
Br675      Br  0.23595748  0.52877276  0.42773531    -0.03800
Br676      Br  0.14240716  0.40443390  0.47745567     0.00100
C677        C  0.26174342  0.02654117  0.02560970     0.01600
C678        C  0.24023119  0.00229321  0.01893860     0.04400
C679        C  0.22302537  0.03616313  0.49078365    -0.11700
C680        C  0.23158694  0.08423003  0.98081650     0.23700
C681        C  0.25290230  0.10749829  0.98584362    -0.12200
C682        C  0.26798768  0.07852144  0.00789411     0.05100
C683        C  0.21166793  0.12092884  0.45378977     0.27500
C684        C  0.21109592  0.10120416  0.41824427    -0.12900
C685        C  0.19454245  0.12434094  0.39645255     0.05600
C686        C  0.17873022  0.16752786  0.41016567    -0.08900
C687        C  0.17903631  0.18584761  0.44588269     0.06400
C688        C  0.19542359  0.16261694  0.46761367    -0.13300
Br689      Br  0.26165381  0.17689502  0.96070917    -0.05300
Br690      Br  0.23040327  0.92621272  0.03615641     0.00300
Br691      Br  0.19346479  0.09777392  0.34794785     0.00700
Br692      Br  0.20194308  0.18145783  0.02244550    -0.03700
Br693      Br  0.29791384  0.10606334  0.01012226     0.00800
Br694      Br  0.19519175  0.99764637  0.47893405    -0.03000
Br695      Br  0.23300335  0.04253153  0.39965080    -0.03800
Br696      Br  0.15703326  0.24365568  0.46503596     0.00100
N697        N  0.12622273  0.39756676  0.87725312    -0.36400
N698        N  0.15877920  0.30300935  0.88627759    -0.56900
N699        N  0.12725788  0.20457397  0.87449276    -0.36400
N700        N  0.09395647  0.29864357  0.86395876    -0.56900
C701        C  0.14146211  0.43011957  0.89595236     0.27200
C702        C  0.10679302  0.42855537  0.88127508     0.27200
C703        C  0.14353541  0.17503623  0.89146624     0.27200
C704        C  0.10877922  0.17094924  0.87633391     0.27200
C705        C  0.17167320  0.35288545  0.88859875     0.35800
C706        C  0.17240426  0.25327518  0.88655307     0.35800
C707        C  0.08314654  0.34859421  0.85203296     0.35800
C708        C  0.08338856  0.24743752  0.85109516     0.35800
C709        C  0.13190094  0.48364516  0.91092912    -0.21700
C710        C  0.10999437  0.48276598  0.90176324    -0.21700
C711        C  0.13562993  0.12076836  0.90318831    -0.21700
C712        C  0.11378136  0.11766333  0.89324652    -0.21700
C713        C  0.19376883  0.33452386  0.88871743    -0.22700
C714        C  0.19422340  0.27139518  0.88732388    -0.22700
C715        C  0.06583326  0.32881241  0.83079645    -0.22700
C716        C  0.06591783  0.26509737  0.83035639    -0.22700
C717        C  0.16363117  0.41161994  0.90056894    -0.18100
C718        C  0.08699729  0.41090640  0.86428230    -0.18100
C719        C  0.08807404  0.18636587  0.86138292    -0.18100
C720        C  0.16543637  0.19534911  0.89593838    -0.18100
H721        H  0.13983277  0.51928364  0.92709323     0.14800
H722        H  0.09812874  0.51870624  0.90960919     0.14800
H723        H  0.14472996  0.08655162  0.91708492     0.14800
H724        H  0.10304800  0.08008262  0.89810226     0.14800
H725        H  0.20806350  0.36317437  0.89240500     0.13100
H726        H  0.20885663  0.24246307  0.88993777     0.13100
H727        H  0.05367749  0.35709517  0.81818384     0.13100
H728        H  0.05394051  0.23564997  0.81719693     0.13100
H729        H  0.12902965  0.35865266  0.86055093     0.26400
H730        H  0.12908815  0.24310411  0.86012777     0.26400
O731        O  0.01548432  0.99123215  0.82203799    -0.72700
O732        O  0.06215438  0.12269255  0.82857207    -0.73700
O733        O  0.06216881  0.98948507  0.81617469    -0.62300
O734        O  0.01527796  0.12547517  0.83520975    -0.70700
O735        O  0.01778295  0.11159099  0.89147475    -0.70300
O736        O  0.06445440  0.97569349  0.87248929    -0.61500
O737        O  0.06482411  0.11006811  0.88487859    -0.74000
O738        O  0.01762902  0.97782549  0.87827565    -0.72800
Cu739      Cu  0.03862489  0.05757114  0.82360097     1.04600
Cu740      Cu  0.04131284  0.04352022  0.88374447     1.04300
C741        C  0.00936022  0.96303715  0.84840788     0.93500
C742        C  0.07076137  0.13766397  0.85809290     0.92600
C743        C  0.07023772  0.96017604  0.84128064     0.84800
C744        C  0.00953024  0.14083350  0.86651527     0.91000
O745        O  0.01629276  0.47484576  0.83248666    -0.72700
O746        O  0.06406085  0.60069908  0.81870061    -0.73700
O747        O  0.06296976  0.47068301  0.82955746    -0.62300
O748        O  0.01775143  0.60585275  0.82015198    -0.70700
O749        O  0.01767624  0.63032606  0.87668548    -0.70300
O750        O  0.06306622  0.49345173  0.88628978    -0.61500
O751        O  0.06432857  0.62458568  0.87541500    -0.74000
O752        O  0.01670932  0.50092927  0.88894014    -0.72800
Cu753      Cu  0.04018564  0.53729352  0.82322545     1.04600
Cu754      Cu  0.04053935  0.56304997  0.88378340     1.04300
C755        C  0.00944809  0.46720774  0.86326830     0.93500
C756        C  0.07120927  0.63350002  0.84495039     0.92600
C757        C  0.06998078  0.46015430  0.85982379     0.84800
C758        C  0.01067739  0.63974968  0.84616918     0.91000
N759        N  0.15266375  0.77912296  0.78945405    -0.36400
N760        N  0.12542031  0.69328206  0.81989649    -0.56900
N761        N  0.09358050  0.79515853  0.83787555    -0.36400
N762        N  0.12152387  0.88045398  0.80551995    -0.56900
C763        C  0.16231224  0.72445957  0.77877292     0.27200
C764        C  0.15869470  0.82021176  0.76654403     0.32000
C765        C  0.08063072  0.74455768  0.83742117     0.27200
C766        C  0.08002341  0.84588667  0.83598358     0.27200
C767        C  0.14362137  0.65617007  0.81676872     0.35800
C768        C  0.11004781  0.66170762  0.83588661     0.35800
C769        C  0.13758217  0.91207580  0.79090883     0.35800
C770        C  0.10745429  0.92275413  0.82077512     0.35800
C771        C  0.17448918  0.73108822  0.74926085    -0.21700
C772        C  0.17220288  0.79103900  0.74132943    -0.21700
C773        C  0.05873298  0.76368303  0.83520549    -0.21700
C774        C  0.05834080  0.82729570  0.83462310    -0.21700
C775        C  0.14009157  0.60091831  0.83160959    -0.22700
C776        C  0.11854538  0.60397217  0.84308527    -0.22700
C777        C  0.13391042  0.97497428  0.79703284    -0.22700
C778        C  0.11484899  0.98184569  0.81633423    -0.22700
C779        C  0.16174528  0.66923288  0.79606054    -0.18100
C780        C  0.15396565  0.88433760  0.76906147    -0.18100
C781        C  0.08666088  0.90833556  0.83408301    -0.18100
C782        C  0.08784363  0.68174062  0.83997247    -0.18100
H783        H  0.18423663  0.69615973  0.73524902     0.14800
H784        H  0.18008610  0.81074607  0.71973225     0.14800
H785        H  0.04455052  0.73436831  0.83311936     0.14800
H786        H  0.04384676  0.85644936  0.83156593     0.14800
H787        H  0.15122917  0.56123511  0.83186134     0.13100
H788        H  0.10979694  0.56717059  0.85408532     0.13100
H789        H  0.14360003  0.01184220  0.78776658     0.13100
H790        H  0.10683038  0.02528985  0.82468260     0.13100
H791        H  0.14487021  0.78925330  0.81313170     0.26400
H792        H  0.11059717  0.79564912  0.84181028     0.26400
C793        C  0.77094145  0.43141887  0.62455312     0.86700
C794        C  0.75671105  0.48664712  0.61493653    -0.53500
C795        C  0.76747369  0.53936292  0.60927035     0.09600
C796        C  0.79289127  0.53183267  0.61385627     0.20600
C797        C  0.78810642  0.42313426  0.59489709    -0.54200
C798        C  0.79939720  0.47589104  0.58885305     0.09700
C799        C  0.78385557  0.45774188  0.65624893    -0.53800
C800        C  0.79620372  0.50768028  0.65066473     0.10300
H801        H  0.73890443  0.48402715  0.61212556     0.14800
H802        H  0.80224517  0.57400674  0.60948234     0.00600
H803        H  0.79052721  0.38017536  0.57930535     0.15100
H804        H  0.78366462  0.43942299  0.68158985     0.14900
C805        C  0.80000092  0.05685528  0.56847472     0.86700
C806        C  0.78052619  0.02024695  0.55526355    -0.53500
C807        C  0.77261844  0.98098558  0.57776456     0.09600
C808        C  0.78506476  0.98250858  0.61313262     0.20600
C809        C  0.79107190  0.08982994  0.60359682    -0.54200
C810        C  0.78251302  0.05012522  0.62684072     0.09700
C811        C  0.81691678  0.00918778  0.58043232    -0.53800
C812        C  0.81035171  0.97480913  0.60616738     0.10300
H813        H  0.77272565  0.02714706  0.53031865     0.14800
H814        H  0.77851724  0.94801945  0.63016344     0.00600
H815        H  0.79256931  0.13808830  0.61066717     0.15100
H816        H  0.83429107  0.01109116  0.57352522     0.14900
N817        N  0.64289640  0.20969862  0.77109673    -0.36400
N818        N  0.61043386  0.30467527  0.78398492    -0.56900
N819        N  0.58436875  0.21400467  0.81720907    -0.36400
N820        N  0.61844146  0.11827165  0.80383320    -0.56900
C821        C  0.65302265  0.26108577  0.76221705     0.27200
C822        C  0.65897071  0.16789530  0.77756841     0.27200
C823        C  0.57728006  0.26875369  0.83339524     0.27200
C824        C  0.57852378  0.16683516  0.83685982     0.27200
C825        C  0.62081685  0.32874474  0.75716383     0.35800
C826        C  0.59160489  0.33777174  0.78993517     0.35800
C827        C  0.63490402  0.08174572  0.78986731     0.35800
C828        C  0.60151453  0.08123368  0.81025388     0.35800
C829        C  0.67566197  0.25317707  0.76413668    -0.21700
C830        C  0.67948667  0.19447253  0.77405175    -0.21700
C831        C  0.56754189  0.25536862  0.86455784    -0.21700
C832        C  0.56806866  0.19171781  0.86642038    -0.21700
C833        C  0.60858312  0.37757566  0.74543162    -0.22700
C834        C  0.59022715  0.38424430  0.76654767    -0.22700
C835        C  0.62880768  0.02060860  0.78842192    -0.22700
C836        C  0.60758337  0.02017438  0.80131189    -0.22700
C837        C  0.64222516  0.30973524  0.74639878    -0.18100
C838        C  0.65538835  0.10407556  0.77925861    -0.18100
C839        C  0.58188068  0.10216423  0.82750674    -0.18100
C840        C  0.57747069  0.32845637  0.81845174    -0.18100
H841        H  0.68808582  0.28529212  0.75733973     0.14800
H842        H  0.69569580  0.17347177  0.77630463     0.14800
H843        H  0.56003157  0.28720928  0.88384531     0.14800
H844        H  0.56140524  0.16686383  0.88726138     0.14800
H845        H  0.61285931  0.40677623  0.72487820     0.13100
H846        H  0.57757934  0.41946869  0.76408985     0.13100
H847        H  0.63863187  0.98069779  0.77921386     0.13100
H848        H  0.59809663  0.97932585  0.80460710     0.13100
H849        H  0.62640671  0.20027403  0.76626404     0.26400
H850        H  0.59058123  0.20802654  0.79220317     0.26400
N851        N  0.58672155  0.72319604  0.88060060    -0.36400
N852        N  0.61722888  0.82312200  0.89822256    -0.56900
N853        N  0.64594900  0.73114375  0.92477818    -0.36400
N854        N  0.61705896  0.63108811  0.90863692    -0.56900
C855        C  0.57909598  0.77093933  0.86196493     0.27200
C856        C  0.58024594  0.66856537  0.86443150     0.27200
C857        C  0.65952130  0.77938362  0.92437252     0.27200
C858        C  0.65855161  0.68132229  0.93138776     0.27200
C859        C  0.59907261  0.85777691  0.89198840     0.35800
C860        C  0.63135489  0.86048691  0.91620963     0.35800
C861        C  0.59872396  0.59723593  0.90437917     0.35800
C862        C  0.62922559  0.60659720  0.93412591     0.35800
C863        C  0.56814099  0.74623502  0.83295270    -0.21700
C864        C  0.56895830  0.68243231  0.83430823    -0.21700
C865        C  0.68120436  0.75928434  0.92905610    -0.21700
C866        C  0.68057220  0.69714351  0.93345306    -0.21700
C867        C  0.60228629  0.91844099  0.90474145    -0.22700
C868        C  0.62266083  0.91975483  0.92044162    -0.22700
C869        C  0.59985648  0.54923571  0.92689284    -0.22700
C870        C  0.61897067  0.55617623  0.94607532    -0.22700
C871        C  0.58078380  0.83579681  0.87223183    -0.18100
C872        C  0.58225779  0.60840105  0.87876782    -0.18100
C873        C  0.64993622  0.62869810  0.94514979    -0.18100
C874        C  0.65206610  0.84116969  0.92863702    -0.18100
H875        H  0.56008069  0.77134373  0.81294459     0.14800
H876        H  0.56145123  0.65068514  0.81535330     0.14800
H877        H  0.69577915  0.78701567  0.93199829     0.14800
H878        H  0.69441347  0.66820395  0.94072826     0.14800
H879        H  0.59156936  0.95847552  0.90265613     0.13100
H880        H  0.63032076  0.95977168  0.93312029     0.13100
H881        H  0.58845380  0.51276712  0.93033427     0.13100
H882        H  0.62486894  0.52673757  0.96592289     0.13100
H883        H  0.59357512  0.72825726  0.90539398     0.26400
H884        H  0.62896304  0.73461174  0.92874928     0.26400
N885        N  0.43810187  0.75126000  0.95838754    -0.36400
N886        N  0.46799833  0.65138395  0.94112374    -0.56900
N887        N  0.48497964  0.72911000  0.88697857    -0.36400
N888        N  0.45664071  0.83349982  0.91137904    -0.56900
C889        C  0.43551561  0.71828113  0.98647510     0.27200
C890        C  0.42646023  0.80439014  0.96376438     0.27200
C891        C  0.49874492  0.67870819  0.88552456     0.27200
C892        C  0.49661818  0.77835742  0.87727204     0.27200
C893        C  0.45431648  0.62295518  0.96244487     0.35800
C894        C  0.47738137  0.60684375  0.91969001     0.35800
C895        C  0.43552955  0.85473951  0.91126156     0.35800
C896        C  0.46654546  0.85631084  0.88401330     0.35800
C897        C  0.42274795  0.75251171  0.01084076    -0.21700
C898        C  0.41671856  0.80661330  0.99616047    -0.21700
C899        C  0.51922018  0.69590594  0.87432365    -0.21700
C900        C  0.51796220  0.75860216  0.86959554    -0.21700
C901        C  0.45561910  0.55971779  0.95548558    -0.22700
C902        C  0.47008315  0.54944928  0.92818507    -0.22700
C903        C  0.43197772  0.89213237  0.88396771    -0.22700
C904        C  0.45197937  0.89411552  0.86699695    -0.22700
C905        C  0.44000659  0.65420304  0.98693523    -0.18100
C906        C  0.42012203  0.84105211  0.93658616    -0.18100
C907        C  0.48814024  0.83974534  0.87349882    -0.18100
C908        C  0.49339619  0.61761626  0.89416715    -0.18100
H909        H  0.41673650  0.73772769  0.03525976     0.14800
H910        H  0.40529976  0.84157728  0.00705329     0.14800
H911        H  0.53367488  0.66629578  0.87130282     0.14800
H912        H  0.53109075  0.78689176  0.86137535     0.14800
H913        H  0.44654286  0.52491068  0.96795062     0.13100
H914        H  0.47438712  0.50477775  0.91575409     0.13100
H915        H  0.41670863  0.91536637  0.87716335     0.13100
H916        H  0.45498192  0.91645887  0.84341575     0.13100
H917        H  0.44318449  0.73375369  0.93369093     0.26400
H918        H  0.46792995  0.72815784  0.89167562     0.26400
C919        C  0.29407885  0.90259418  0.54374064     0.86700
C920        C  0.31138918  0.93381430  0.56759650    -0.53500
C921        C  0.30379390  0.98292080  0.58770659     0.09600
C922        C  0.27906870  0.99903728  0.58124460     0.20600
C923        C  0.27467098  0.88925667  0.56783424    -0.54200
C924        C  0.26676854  0.93964279  0.58834481     0.09700
C925        C  0.28545226  0.95560106  0.52253633    -0.53800
C926        C  0.27615964  0.00407020  0.54125732     0.10300
H927        H  0.32847234  0.91799265  0.56935128     0.14800
H928        H  0.27416633  0.04086914  0.59736008     0.00600
H929        H  0.26709434  0.84447194  0.56652964     0.15100
H930        H  0.28447292  0.95349861  0.49448475     0.14900
N931        N  0.48132814  0.22687356  0.82599967    -0.36400
N932        N  0.45789098  0.13142736  0.78439905    -0.56900
N933        N  0.43261047  0.22743045  0.75503052    -0.36400
N934        N  0.45510345  0.32367489  0.79313281    -0.56900
C935        C  0.49479283  0.17585690  0.82820521     0.27200
C936        C  0.49403486  0.27788484  0.83107068     0.27200
C937        C  0.42747562  0.17849543  0.73351305     0.27200
C938        C  0.42551856  0.27835202  0.73967694     0.27200
C939        C  0.46907872  0.09512741  0.80579079     0.35800
C940        C  0.44171397  0.09677012  0.76948436     0.35800
C941        C  0.46618530  0.35886930  0.81701311     0.35800
C942        C  0.43692497  0.35655120  0.78419797     0.35800
C943        C  0.51606398  0.19483389  0.83490863    -0.21700
C944        C  0.51559931  0.25866854  0.83653416    -0.21700
C945        C  0.41772167  0.19859737  0.70353971    -0.21700
C946        C  0.41644208  0.26182546  0.70748964    -0.21700
C947        C  0.46016375  0.03680550  0.80409349    -0.22700
C948        C  0.44256352  0.03798047  0.78135646    -0.22700
C949        C  0.45527640  0.41551699  0.82281354    -0.22700
C950        C  0.43636678  0.41346803  0.80245301    -0.22700
C951        C  0.48854598  0.11251546  0.82376802    -0.18100
C952        C  0.48681430  0.34138768  0.83115956    -0.18100
C953        C  0.42213523  0.33600274  0.75774608    -0.18100
C954        C  0.42744797  0.11721657  0.74342868    -0.18100
H955        H  0.53045760  0.16515271  0.83683454     0.14800
H956        H  0.52955995  0.28818670  0.84013102     0.14800
H957        H  0.41085034  0.17053534  0.68215944     0.14800
H958        H  0.40833628  0.29187151  0.68981971     0.14800
H959        H  0.46621259  0.99737392  0.81717507     0.13100
H960        H  0.43218058  0.99960121  0.77348270     0.13100
H961        H  0.46037893  0.45397911  0.83997990     0.13100
H962        H  0.42417034  0.45024802  0.80025455     0.13100
H963        H  0.46421173  0.22685839  0.82342891     0.26400
H964        H  0.43620921  0.22573990  0.78132977     0.26400
C965        C  0.27401387  0.47224334  0.58324380     0.86700
C966        C  0.29698900  0.49337031  0.57450596    -0.53500
C967        C  0.31074805  0.50191955  0.60204573     0.09600
C968        C  0.29998107  0.49065791  0.63708813     0.20600
C969        C  0.27801273  0.41382250  0.60420221    -0.54200
C970        C  0.29186879  0.42366466  0.63223509     0.09700
C971        C  0.26508502  0.51887294  0.61134132    -0.53800
C972        C  0.27845550  0.53135957  0.63950249     0.10300
H973        H  0.30236167  0.49834595  0.54802428     0.14800
H974        H  0.31184657  0.49717514  0.65862305     0.00600
H975        H  0.27011849  0.37000502  0.59910765     0.15100
H976        H  0.24818155  0.53608229  0.60983372     0.14900
O977        O  0.51036615  0.89095502  0.83192133    -0.72700
O978        O  0.55771982  0.01709355  0.81188447    -0.73700
O979        O  0.55731944  0.88807253  0.83120185    -0.62300
O980        O  0.51045934  0.01970815  0.81083113    -0.70700
O981        O  0.51115362  0.05909296  0.86511812    -0.70300
O982        O  0.55589480  0.92232607  0.88626516    -0.61500
O983        O  0.55794934  0.05151675  0.86699824    -0.74000
O984        O  0.50911065  0.93118686  0.88603194    -0.72800
Cu985      Cu  0.53389299  0.95298215  0.81951958     1.04600
Cu986      Cu  0.53349694  0.99204539  0.87796971     1.04300
C987        C  0.50298626  0.89004275  0.86295011     0.93500
C988        C  0.56502877  0.05487670  0.83603777     0.92600
C989        C  0.56361196  0.88354666  0.86259374     0.84800
C990        C  0.50415817  0.06147754  0.83386938     0.91000
O991        O  0.55816001  0.55050452  0.83803047    -0.72700
O992        O  0.50763354  0.43108228  0.81970628    -0.73700
O993        O  0.51201933  0.55931283  0.84706701    -0.62300
O994        O  0.55417945  0.42016994  0.81189577    -0.70700
O995        O  0.55885089  0.39035225  0.86491865    -0.70300
O996        O  0.51416665  0.52255370  0.89921029    -0.61500
O997        O  0.51220603  0.39368634  0.87138660    -0.74000
O998        O  0.56008063  0.52052289  0.89132191    -0.72800
Cu999      Cu  0.53288489  0.49116220  0.82732001     1.04600
Cu1000     Cu  0.53645359  0.45572609  0.88349947     1.04300
C1001       C  0.56621267  0.55725215  0.86867026     0.93500
C1002       C  0.50272147  0.39162999  0.84160638     0.92600
C1003       C  0.50703954  0.56371871  0.87932568     0.84800
C1004       C  0.56283256  0.38211406  0.83246921     0.91000
N1005       N  0.93004367  0.32044643  0.92497386    -0.36400
N1006       N  0.95764953  0.21807007  0.90145378    -0.56900
N1007       N  0.98680762  0.30648267  0.87244082    -0.36400
N1008       N  0.95730602  0.40950642  0.89763132    -0.56900
C1009       C  0.92246312  0.27439508  0.94320576     0.27200
C1010       C  0.92276719  0.37377939  0.94129834     0.27200
C1011       C  0.00009800  0.25533478  0.87492092     0.27200
C1012       C  0.99995980  0.35670805  0.87327846     0.27200
C1013       C  0.93959729  0.18644444  0.90957806     0.35800
C1014       C  0.97149823  0.17790684  0.88401035     0.35800
C1015       C  0.93919363  0.44622852  0.90363639     0.35800
C1016       C  0.97112262  0.44022016  0.87808391     0.35800
C1017       C  0.91093383  0.29862981  0.97202993    -0.21700
C1018       C  0.91128540  0.36145440  0.97085773    -0.21700
C1019       C  0.02181649  0.27350704  0.87783141    -0.21700
C1020       C  0.02171351  0.33717977  0.87696123    -0.21700
C1021       C  0.94184551  0.12543525  0.89715905    -0.22700
C1022       C  0.96227016  0.11979226  0.88121114    -0.22700
C1023       C  0.94139399  0.50101887  0.88770336    -0.22700
C1024       C  0.96188787  0.49766888  0.87192306    -0.22700
C1025       C  0.92248937  0.21201457  0.93104684    -0.18100
C1026       C  0.92205361  0.43102339  0.92601060    -0.18100
C1027       C  0.99286190  0.41941755  0.86990362    -0.18100
C1028       C  0.99311332  0.19271241  0.87414059    -0.18100
H1029       H  0.90210627  0.27377647  0.99084018     0.14800
H1030       H  0.90267600  0.39434195  0.98821399     0.14800
H1031       H  0.03615216  0.24395324  0.88143231     0.14800
H1032       H  0.03594898  0.36623919  0.87982262     0.14800
H1033       H  0.93043852  0.08860257  0.90050233     0.13100
H1034       H  0.96966908  0.07764524  0.86960551     0.13100
H1035       H  0.93005915  0.54025262  0.88891755     0.13100
H1036       H  0.96938904  0.53384204  0.85834702     0.13100
H1037       H  0.93586467  0.31538893  0.89957445     0.26400
H1038       H  0.96985622  0.30669546  0.86754293     0.26400
N1039       N  0.98680578  0.80103430  0.83925501    -0.36400
N1040       N  0.95515423  0.70097599  0.82273492    -0.56900
N1041       N  0.92373021  0.79414338  0.81044939    -0.36400
N1042       N  0.95396590  0.89495432  0.82632851    -0.56900
C1043       C  0.99648531  0.75088062  0.85295530     0.27200
C1044       C  0.99607601  0.85287591  0.85425922     0.27200
C1045       C  0.91064970  0.74455330  0.80986758     0.27200
C1046       C  0.91041879  0.84449191  0.81085357     0.27200
C1047       C  0.97438927  0.66884277  0.82160417     0.35800
C1048       C  0.94024359  0.66608895  0.80475928     0.35800
C1049       C  0.97219120  0.92973578  0.82653321     0.35800
C1050       C  0.93859500  0.92398184  0.80737588     0.35800
C1051       C  0.01188622  0.77136192  0.87759684    -0.21700
C1052       C  0.01167142  0.83530470  0.87831986    -0.21700
C1053       C  0.88869278  0.76361241  0.81152885    -0.21700
C1054       C  0.88852973  0.82688717  0.81197005    -0.21700
C1055       C  0.97138130  0.61203544  0.80336763    -0.22700
C1056       C  0.94974178  0.61071630  0.79255129    -0.22700
C1057       C  0.96783965  0.98289801  0.80910062    -0.22700
C1058       C  0.94664200  0.97854010  0.79644891    -0.22700
C1059       C  0.99348049  0.68804091  0.84034804    -0.18100
C1060       C  0.99211450  0.91429089  0.84367745    -0.18100
C1061       C  0.91744224  0.90112094  0.79969655    -0.18100
C1062       C  0.91803107  0.68408889  0.80035938    -0.18100
H1063       H  0.02286862  0.74348186  0.89265145     0.14800
H1064       H  0.02234577  0.86502456  0.89406243     0.14800
H1065       H  0.87429721  0.73489759  0.80958510     0.14800
H1066       H  0.87388442  0.85593500  0.81023191     0.14800
H1067       H  0.98307401  0.57426516  0.79855633     0.13100
H1068       H  0.94185767  0.57315713  0.77784799     0.13100
H1069       H  0.97857702  0.02096748  0.80537706     0.13100
H1070       H  0.93806107  0.01180964  0.78119532     0.13100
H1071       H  0.97666353  0.79942760  0.81734556     0.26400
H1072       H  0.94017642  0.79371751  0.80266799     0.26400
C1073       C  0.29999602  0.37598223  0.65574523     0.01600
C1074       C  0.29835831  0.39092647  0.69140722     0.04400
C1075       C  0.31716485  0.38727435  0.71287484    -0.11700
C1076       C  0.33718323  0.36271600  0.69865204     0.23700
C1077       C  0.33671226  0.33249531  0.66509463    -0.12200
C1078       C  0.31754110  0.33683597  0.64439478     0.05100
C1079       C  0.35824984  0.36680445  0.71892697     0.27500
C1080       C  0.37505794  0.40657780  0.70924980    -0.12900
C1081       C  0.39610965  0.40384733  0.72518181     0.05600
C1082       C  0.39987013  0.36500156  0.75259031    -0.08900
C1083       C  0.38187368  0.33412019  0.76600079     0.06400
C1084       C  0.36178080  0.33072114  0.74764398    -0.13300
Br1085     Br  0.36210488  0.28633398  0.64731452    -0.05300
Br1086     Br  0.26943830  0.40768773  0.70984924     0.00300
Br1087     Br  0.42032283  0.44871001  0.70783745     0.00700
Br1088     Br  0.34031469  0.27131376  0.75957937    -0.03700
Br1089     Br  0.31273576  0.28012794  0.60499059     0.00800
Br1090     Br  0.31560594  0.41834686  0.76069007    -0.03000
Br1091     Br  0.36954075  0.46234784  0.67303837    -0.03800
Br1092     Br  0.38577554  0.29191747  0.80810570     0.00100
C1093       C  0.31849948  0.00972741  0.61574262     0.01600
C1094       C  0.31942941  0.98246382  0.64802428     0.04400
C1095       C  0.33815827  0.98864670  0.66951741    -0.11700
C1096       C  0.35477729  0.02960541  0.66161311     0.23700
C1097       C  0.35291818  0.06210855  0.63118293    -0.12200
C1098       C  0.33556174  0.04950799  0.60746563     0.05100
C1099       C  0.37360584  0.04073531  0.68599703     0.27500
C1100       C  0.36999142  0.07400322  0.71806934    -0.12900
C1101       C  0.38797338  0.08941897  0.73974979     0.05600
C1102       C  0.40974302  0.07756907  0.72805464    -0.08900
C1103       C  0.41339684  0.04152382  0.69694680     0.06400
C1104       C  0.39527292  0.02089041  0.67664539    -0.13300
Br1105     Br  0.37441112  0.12307719  0.62172867    -0.05300
Br1106     Br  0.29511462  0.93764938  0.66399533     0.00300
Br1107     Br  0.38300737  0.13045931  0.78478178     0.00700
Br1108     Br  0.40008248  0.96781211  0.63532433    -0.03700
Br1109     Br  0.33600827  0.08421003  0.56294956     0.00800
Br1110     Br  0.34169640  0.93815484  0.70877661    -0.03000
Br1111     Br  0.34067819  0.10353875  0.73099958    -0.03800
Br1112     Br  0.44314092  0.02583252  0.68074400     0.00100
C1113       C  0.42526514  0.61894586  0.00908408     0.01600
C1114       C  0.43106422  0.60782441  0.04360321     0.04400
C1115       C  0.41511640  0.58631873  0.06631102    -0.11700
C1116       C  0.39310651  0.57860339  0.05495577     0.23700
C1117       C  0.38748040  0.58888168  0.02025083    -0.12200
C1118       C  0.40366567  0.60671314  0.99720316     0.05100
C1119       C  0.37602469  0.54118089  0.56991569     0.27500
C1120       C  0.36838780  0.48077961  0.56509638    -0.12900
C1121       C  0.34724789  0.46715240  0.57654227     0.05600
C1122       C  0.33458402  0.51208262  0.59638116    -0.08900
C1123       C  0.34376479  0.56991340  0.60560932     0.06400
C1124       C  0.36431106  0.58496398  0.59168297    -0.13300
Br1125     Br  0.35730773  0.58002093  0.00438860    -0.05300
Br1126     Br  0.46069034  0.62332377  0.05967053     0.00300
Br1127     Br  0.33498021  0.38974324  0.56027851     0.00700
Br1128     Br  0.37272768  0.67831746  0.11034871    -0.03700
Br1129     Br  0.39627590  0.61462649  0.94907440     0.00800
Br1130     Br  0.42412706  0.53679879  0.60147619    -0.03000
Br1131     Br  0.38632978  0.41832318  0.54007375    -0.03800
Br1132     Br  0.32709004  0.63079925  0.63370186     0.00100
C1133       C  0.30336785  0.84626132  0.52155688     0.01600
C1134       C  0.32242121  0.81541638  0.53346111     0.04400
C1135       C  0.34127255  0.81045209  0.51220198    -0.11700
C1136       C  0.34015976  0.83260750  0.47858256     0.23700
C1137       C  0.31128546  0.82558326  0.96006264    -0.12200
C1138       C  0.30054215  0.84464671  0.48525737     0.05100
C1139       C  0.35255345  0.82912239  0.95247158     0.27500
C1140       C  0.36269422  0.88598851  0.96132207    -0.12900
C1141       C  0.38434969  0.89594611  0.95020157     0.05600
C1142       C  0.39595401  0.84854525  0.93120766    -0.08900
C1143       C  0.38449381  0.79639068  0.91760715     0.06400
C1144       C  0.36286214  0.78614798  0.92868144    -0.13300
Br1145     Br  0.30640707  0.84982963  0.91353806    -0.05300
Br1146     Br  0.32312594  0.78760356  0.57986389     0.00300
Br1147     Br  0.39915639  0.97132221  0.96361854     0.00700
Br1148     Br  0.34819819  0.71086291  0.91423929    -0.03700
Br1149     Br  0.26342485  0.83213424  0.96826435     0.00800
Br1150     Br  0.36875319  0.77876495  0.52989966    -0.03000
Br1151     Br  0.34783618  0.94731739  0.99170032    -0.03800
Br1152     Br  0.39950559  0.73589531  0.88688477     0.00100
C1153       C  0.75106529  0.95254398  0.56928188     0.01600
C1154       C  0.73249845  0.99222621  0.56477453     0.04400
C1155       C  0.71331572  0.98205857  0.05124044    -0.11700
C1156       C  0.71515533  0.91317352  0.52763867     0.23700
C1157       C  0.73225920  0.87103633  0.53526875    -0.12200
C1158       C  0.75062562  0.89131675  0.55495172     0.05100
C1159       C  0.69568840  0.91423850  0.00525659     0.27500
C1160       C  0.67463569  0.89559900  0.01498377    -0.12900
C1161       C  0.65879101  0.88105242  0.98932333     0.05600
C1162       C  0.66446616  0.88141067  0.95395838    -0.08900
C1163       C  0.68452701  0.90676631  0.94441937     0.06400
C1164       C  0.70011949  0.92378105  0.97015637    -0.13300
Br1165     Br  0.73137278  0.78736362  0.51572574    -0.05300
Br1166     Br  0.73205238  0.07589886  0.58393100     0.00300
Br1167     Br  0.62940129  0.85985251  0.00254183     0.00700
Br1168     Br  0.72773929  0.95852060  0.95740975    -0.03700
Br1169     Br  0.77647681  0.83851478  0.55711600     0.00800
Br1170     Br  0.68947930  0.04181124  0.04633303    -0.03000
Br1171     Br  0.66806913  0.88716409  0.55689469    -0.03800
Br1172     Br  0.69091962  0.91403605  0.89603604     0.00100
C1173       C  0.67296862  0.06217757  0.76356568     0.01600
C1174       C  0.69317605  0.05632657  0.78142099     0.04400
C1175       C  0.71314137  0.05263479  0.76268036    -0.11700
C1176       C  0.71265761  0.04767806  0.72598608     0.23700
C1177       C  0.69222772  0.04032201  0.70866801    -0.12200
C1178       C  0.67240081  0.04921968  0.72732587     0.05100
C1179       C  0.73306070  0.05590819  0.70539382     0.27500
C1180       C  0.73582851  0.10989522  0.68742835    -0.12900
C1181       C  0.75356449  0.11419733  0.66389098     0.05600
C1182       C  0.76966832  0.06554982  0.66021719    -0.08900
C1183       C  0.76906932  0.02011414  0.68507156     0.06400
C1184       C  0.74993854  0.01092055  0.70410669    -0.13300
Br1185     Br  0.69147916  0.02400630  0.65895039    -0.05300
Br1186     Br  0.69338161  0.06617595  0.83137078     0.00300
Br1187     Br  0.75504354  0.18731452  0.63822800     0.00700
Br1188     Br  0.74659642  0.93477969  0.72673035    -0.03700
Br1189     Br  0.64463564  0.05231680  0.70273212     0.00800
Br1190     Br  0.74072668  0.06404336  0.78725649    -0.03000
Br1191     Br  0.71476881  0.17686995  0.69496324    -0.03800
Br1192     Br  0.79529123  0.97811680  0.69912861     0.00100
C1193       C  0.82728346  0.96449221  0.63404200     0.01600
C1194       C  0.82973616  0.90590565  0.64781994     0.04400
C1195       C  0.84456551  0.89715490  0.67547616    -0.11700
C1196       C  0.85729977  0.94649836  0.68920954     0.23700
C1197       C  0.85582999  0.00400994  0.67483622    -0.12200
C1198       C  0.84092614  0.01374288  0.64770555     0.05100
C1199       C  0.87327688  0.93807899  0.71770692     0.27500
C1200       C  0.86873857  0.96350777  0.75158499    -0.12900
C1201       C  0.88462450  0.95867685  0.77795258     0.05600
C1202       C  0.90443252  0.92556479  0.77094046    -0.08900
C1203       C  0.90949022  0.90319430  0.73672097     0.06400
C1204       C  0.89403147  0.91022003  0.71005787    -0.13300
Br1205     Br  0.87482956  0.06973562  0.69262883    -0.05300
Br1206     Br  0.81218667  0.83807719  0.63010222     0.00300
Br1207     Br  0.87920432  0.99469880  0.82415521     0.00700
Br1208     Br  0.90121811  0.88163627  0.66300056    -0.03700
Br1209     Br  0.84011230  0.09672248  0.63171134     0.00800
Br1210     Br  0.84734520  0.81787536  0.69510821    -0.03000
Br1211     Br  0.84070800  0.00387057  0.76216006    -0.03800
Br1212     Br  0.93727549  0.86058069  0.72654172     0.00100
C1213       C  0.81081634  0.09007805  0.53882916     0.01600
C1214       C  0.81464973  0.15447512  0.53993989     0.04400
C1215       C  0.83264851  0.17855420  0.01874918    -0.11700
C1216       C  0.84244778  0.13778639  0.99311745     0.23700
C1217       C  0.83735704  0.07559211  0.49075883    -0.12200
C1218       C  0.82057290  0.05241886  0.51075881     0.05100
C1219       C  0.86331910  0.15258588  0.97549668     0.27500
C1220       C  0.86271077  0.17805448  0.94284961    -0.12900
C1221       C  0.88254559  0.18859649  0.92553113     0.05600
C1222       C  0.90312527  0.17621114  0.94130609    -0.08900
C1223       C  0.90370049  0.14678359  0.97276371     0.06400
C1224       C  0.88384182  0.13441816  0.98965887    -0.13300
Br1225     Br  0.85222040  0.02333990  0.45520211    -0.05300
Br1226     Br  0.79433039  0.21434578  0.56164102     0.00300
Br1227     Br  0.88175829  0.22196511  0.88049205     0.00700
Br1228     Br  0.88541289  0.10384352  0.54309716    -0.03700
Br1229     Br  0.81323100  0.96643229  0.50054636     0.00800
Br1230     Br  0.84339596  0.26147483  0.02547146    -0.03000
Br1231     Br  0.83467147  0.19897209  0.92219154    -0.03800
Br1232     Br  0.93179364  0.12790220  0.99370855     0.00100
C1233       C  0.75592011  0.37611683  0.63065356     0.01600
C1234       C  0.73728154  0.36789498  0.60890747     0.04400
C1235       C  0.71612044  0.36665219  0.62374273    -0.11700
C1236       C  0.71402584  0.35684639  0.65935056     0.23700
C1237       C  0.73347803  0.34548441  0.67875377    -0.12200
C1238       C  0.75440829  0.35258466  0.66377834     0.05100
C1239       C  0.69177135  0.35429059  0.67586812     0.27500
C1240       C  0.68517431  0.39942930  0.70201216    -0.12900
C1241       C  0.66667104  0.38979193  0.72298638     0.05600
C1242       C  0.65428553  0.33592833  0.71718072    -0.08900
C1243       C  0.65886174  0.29612345  0.68758912     0.06400
C1244       C  0.67773588  0.30439085  0.66738319    -0.13300
Br1245     Br  0.73185528  0.32408348  0.72635306    -0.05300
Br1246     Br  0.74076066  0.36656604  0.55961440     0.00300
Br1247     Br  0.65953537  0.44710787  0.76160989     0.00700
Br1248     Br  0.68502032  0.24416454  0.62989514    -0.03700
Br1249     Br  0.78043835  0.31853104  0.68512261     0.00800
Br1250     Br  0.69062005  0.38761308  0.59636129    -0.03000
Br1251     Br  0.70212721  0.47309524  0.71007005    -0.03800
Br1252     Br  0.64031741  0.22616137  0.67702554     0.00100
C1253       C  0.66140403  0.60775650  0.97674124     0.01600
C1254       C  0.66131552  0.64933482  0.00623955     0.04400
C1255       C  0.67951822  0.65171116  0.02882226    -0.11700
C1256       C  0.69625673  0.60564376  0.02548091     0.23700
C1257       C  0.69425654  0.55711534  0.99946464    -0.12200
C1258       C  0.67729351  0.55950996  0.97431846     0.05100
C1259       C  0.71613255  0.60329662  0.55423152     0.27500
C1260       C  0.73744083  0.61294379  0.54079149    -0.12900
C1261       C  0.75628811  0.60832179  0.56235992     0.05600
C1262       C  0.75387322  0.59241837  0.59685325    -0.08900
C1263       C  0.73271265  0.60091434  0.61188706     0.06400
C1264       C  0.71381127  0.59983637  0.59044315    -0.13300
Br1265     Br  0.71491550  0.48835873  0.99771426    -0.05300
Br1266     Br  0.63628510  0.70401152  0.01477035     0.00300
Br1267     Br  0.78515432  0.62505936  0.54530754     0.00700
Br1268     Br  0.68554035  0.58333520  0.61033516    -0.03700
Br1269     Br  0.67600803  0.49844107  0.93608019     0.00800
Br1270     Br  0.68056307  0.71375982  0.56124568    -0.03000
Br1271     Br  0.74163894  0.64091817  0.99153031    -0.03800
Br1272     Br  0.72997623  0.59776428  0.66146702     0.00100
C1273       C  0.81313260  0.52893783  0.67689698     0.01600
C1274       C  0.81254065  0.58985250  0.69198599     0.04400
C1275       C  0.82850126  0.60857392  0.71703458    -0.11700
C1276       C  0.84618004  0.56834178  0.72499349     0.23700
C1277       C  0.84655989  0.50723192  0.71069820    -0.12200
C1278       C  0.82965882  0.48669540  0.68796483     0.05100
C1279       C  0.86580804  0.59253726  0.74431729     0.27500
C1280       C  0.88112731  0.62718560  0.72676840    -0.12900
C1281       C  0.89941908  0.65230857  0.74459281     0.05600
C1282       C  0.90244607  0.64359150  0.78016107    -0.08900
C1283       C  0.88817588  0.60500507  0.79708669     0.06400
C1284       C  0.86979795  0.57954904  0.77923712    -0.13300
Br1285     Br  0.87114514  0.45268032  0.72068410    -0.05300
Br1286     Br  0.78979704  0.64754748  0.67894096     0.00300
Br1287     Br  0.92026026  0.69973969  0.72041508     0.00700
Br1288     Br  0.84993647  0.52812736  0.80276464    -0.03700
Br1289     Br  0.83089669  0.40131645  0.67005469     0.00800
Br1290     Br  0.82626789  0.68914358  0.74090753    -0.03000
Br1291     Br  0.87693069  0.64067667  0.67817264    -0.03800
Br1292     Br  0.89367818  0.58859172  0.84482909     0.00100
C1293       C  0.81504676  0.48084967  0.55905078     0.01600
C1294       C  0.80701353  0.48199828  0.52464365     0.04400
C1295       C  0.82258054  0.48875005  0.99484996    -0.11700
C1296       C  0.84437594  0.49574818  0.50257989     0.23700
C1297       C  0.85254722  0.49116460  0.53679514    -0.12200
C1298       C  0.83785558  0.48918117  0.56484491     0.05100
C1299       C  0.86274347  0.48416882  0.97368482     0.27500
C1300       C  0.86340165  0.44044881  0.94490353    -0.12900
C1301       C  0.88145438  0.43876434  0.92195689     0.05600
C1302       C  0.90112841  0.46859688  0.93196488    -0.08900
C1303       C  0.89993621  0.51634368  0.95834354     0.06400
C1304       C  0.88019196  0.52681356  0.97755111    -0.13300
Br1305     Br  0.88393533  0.48598678  0.54632758    -0.05300
Br1306     Br  0.77638117  0.46742414  0.51462762     0.00300
Br1307     Br  0.88119180  0.38747939  0.87945697     0.00700
Br1308     Br  0.87781621  0.59635199  0.01109400    -0.03700
Br1309     Br  0.84962113  0.50047173  0.61085523     0.00800
Br1310     Br  0.81240464  0.51107814  0.94978781    -0.03000
Br1311     Br  0.84238572  0.37497208  0.93993915    -0.03800
Br1312     Br  0.92579841  0.56317149  0.97014964     0.00100
C1313       C  0.16647929  0.92168287  0.74534153     0.01600
C1314       C  0.18807229  0.93894647  0.75484305     0.04400
C1315       C  0.20359976  0.94938622  0.72907197    -0.11700
C1316       C  0.19777589  0.93974444  0.69382410     0.23700
C1317       C  0.17571456  0.92757761  0.68436390    -0.12200
C1318       C  0.15991500  0.92024286  0.71020761     0.05100
C1319       C  0.21503623  0.93922960  0.66675429     0.27500
C1320       C  0.21747545  0.99097009  0.64753418    -0.12900
C1321       C  0.23312186  0.99019671  0.62069244     0.05600
C1322       C  0.24798286  0.93823674  0.61428117    -0.08900
C1323       C  0.24538769  0.88630686  0.63479765     0.06400
C1324       C  0.22865820  0.88667195  0.66007451    -0.13300
Br1325     Br  0.16775341  0.91431844  0.63605050    -0.05300
Br1326     Br  0.19710664  0.93928485  0.80277875     0.00300
Br1327     Br  0.23139644  0.06091847  0.59292559     0.00700
Br1328     Br  0.22449066  0.81520500  0.68657586    -0.03700
Br1329     Br  0.13027911  0.89669327  0.69742769     0.00800
Br1330     Br  0.23330516  0.97218894  0.74178174    -0.03000
Br1331     Br  0.19897243  0.06355829  0.65878783    -0.03800
Br1332     Br  0.26548407  0.81552272  0.63231726     0.00100
C1333       C  0.26937367  0.57008881  0.67057975     0.01600
C1334       C  0.25061391  0.60848120  0.66586733     0.04400
C1335       C  0.23369863  0.61279777  0.69056694    -0.11700
C1336       C  0.23669298  0.58602531  0.72270847     0.23700
C1337       C  0.25776035  0.56096379  0.73056229    -0.12200
C1338       C  0.27450213  0.55686513  0.70502094     0.05100
C1339       C  0.21860105  0.59134733  0.74902003     0.27500
C1340       C  0.22020510  0.63385597  0.77808521    -0.12900
C1341       C  0.20176709  0.64654580  0.79956665     0.05600
C1342       C  0.18079936  0.62508191  0.78915866    -0.08900
C1343       C  0.17946296  0.57863926  0.76196260     0.06400
C1344       C  0.19858199  0.55998754  0.74285829    -0.13300
Br1345     Br  0.26350698  0.52935568  0.77546709    -0.05300
Br1346     Br  0.24897412  0.65998653  0.62711737     0.00300
Br1347     Br  0.20406326  0.70296595  0.83997371     0.00700
Br1348     Br  0.19679882  0.49672200  0.70557264    -0.03700
Br1349     Br  0.30476856  0.55386201  0.71982791     0.00800
Br1350     Br  0.20622551  0.65251632  0.67840011    -0.03000
Br1351     Br  0.24613391  0.68340718  0.78519260    -0.03800
Br1352     Br  0.15107645  0.54779495  0.74738047     0.00100
C1353       C  0.25907012  0.47202678  0.55074618     0.01600
C1354       C  0.25226838  0.41772071  0.53177459     0.04400
C1355       C  0.23479964  0.42102932  0.50760361    -0.11700
C1356       C  0.22473679  0.47843659  0.50108555     0.23700
C1357       C  0.23343064  0.53295202  0.51624132    -0.12200
C1358       C  0.25174883  0.52982241  0.53843449     0.05100
C1359       C  0.21226556  0.45939055  0.97477484     0.27500
C1360       C  0.21420771  0.48044293  0.94106669    -0.12900
C1361       C  0.19625904  0.47531116  0.91789664     0.05600
C1362       C  0.17724926  0.44467746  0.92752075    -0.08900
C1363       C  0.17446753  0.42998594  0.96228998     0.06400
C1364       C  0.19204850  0.43676724  0.98580432    -0.13300
Br1365     Br  0.22207054  0.59312913  0.00519507    -0.05300
Br1366     Br  0.26983061  0.34248299  0.53114250     0.00300
Br1367     Br  0.19788786  0.50609719  0.87226571     0.00700
Br1368     Br  0.18055397  0.44428568  0.53610281    -0.03700
Br1369     Br  0.26804095  0.60478570  0.54771652     0.00800
Br1370     Br  0.22443966  0.34680334  0.48309118    -0.03000
Br1371     Br  0.24199064  0.51026862  0.92548478    -0.03800
Br1372     Br  0.14692062  0.39779712  0.97746777     0.00100
C1373       C  0.25809492  0.03813481  0.52319878     0.01600
C1374       C  0.23836132  0.00753909  0.51232501     0.04400
C1375       C  0.22527017  0.03193370  0.99732269    -0.11700
C1376       C  0.22780038  0.09295964  0.47752346     0.23700
C1377       C  0.24728086  0.12343321  0.48775857    -0.12200
C1378       C  0.26199505  0.09703675  0.51138643     0.05100
C1379       C  0.21531600  0.11416927  0.95836378     0.27500
C1380       C  0.21337227  0.09419571  0.92302355    -0.12900
C1381       C  0.19609206  0.11762769  0.90285879     0.05600
C1382       C  0.18097830  0.16128440  0.91795858    -0.08900
C1383       C  0.18273553  0.18026233  0.95344953     0.06400
C1384       C  0.19985255  0.15670378  0.97362682    -0.13300
Br1385     Br  0.25419043  0.19996415  0.46808052    -0.05300
Br1386     Br  0.23132241  0.92636118  0.52594531     0.00300
Br1387     Br  0.19308822  0.09129333  0.85455114     0.00700
Br1388     Br  0.19544717  0.18700917  0.51656210    -0.03700
Br1389     Br  0.28766969  0.14127045  0.52692639     0.00800
Br1390     Br  0.19598760  0.99954209  0.98865667    -0.03000
Br1391     Br  0.23426436  0.03450004  0.90253209    -0.03800
Br1392     Br  0.16175857  0.23910200  0.97440022     0.00100
loop_ 
_geom_bond_atom_site_label_1 
_geom_bond_atom_site_label_2 
_geom_bond_distance 
_geom_bond_site_symmetry_2 
_ccdc_geom_bond_type 
N1            C6   1.350       .  A
N1            C5   1.353       .  A
N1           H33   1.040       .  S
N2            C9   1.346       .  A
N2           C10   1.347       .  A
N3            C8   1.353       .  A
N3            C7   1.355       .  A
N3           H34   1.040       .  S
N4           C11   1.361       .  A
N4           C12   1.360       .  A
C5           C13   1.382       .  A
C5           C21   1.409       .  A
C6           C22   1.417       .  A
C6           C14   1.393       .  A
C7           C15   1.383       .  A
C7           C24   1.413       .  A
C8           C23   1.421       .  A
C8           C16   1.392       .  A
C9           C21   1.408       .  A
C9           C17   1.388       .  A
C10          C24   1.405       .  A
C10          C18   1.386       .  A
C11          C19   1.386       .  A
C11          C22   1.433       .  A
C12          C20   1.386       .  A
C12          C23   1.432       .  A
C13          C14   1.370       .  A
C13          H25   1.082       .  S
C14          H26   1.078       .  S
C15          C16   1.375       .  A
C15          H27   1.082       .  S
C16          H28   1.080       .  S
C17          C18   1.367       .  A
C17          H29   1.080       .  S
C18          H30   1.083       .  S
C19          C20   1.383       .  A
C19          H31   1.081       .  S
C20          H32   1.081       .  S
C21         C666   1.486       .  S
C22          C61   1.499       .  S
C23          C46   1.502       .  S
C24         C686   1.488       .  S
O35         Cu43   2.028       .  S
O35          C45   1.281   1_545  A
O36         Cu43   2.025       .  S
O36          C46   1.277       .  A
O37         Cu43   2.046   1_565  S
O37          C47   1.282       .  A
O38         Cu43   2.053       .  S
O38          C48   1.282       .  A
O39         Cu44   2.030       .  S
O39          C48   1.279       .  A
O40         Cu44   2.034   1_565  S
O40          C47   1.279       .  A
O41         Cu44   2.041       .  S
O41          C46   1.284       .  A
O42         Cu44   2.044   1_565  S
O42          C45   1.280       .  A
Cu43        Cu44   2.366       .  S
C45         C364   1.505   1_455  S
C47          C85   1.498       .  S
C48         C332   1.500   1_455  S
O49         Cu57   2.046       .  S
O49          C59   1.282       .  A
O50         Cu57   2.035       .  S
O50          C60   1.281       .  A
O51         Cu57   2.022       .  S
O51          C61   1.276       .  A
O52         Cu57   2.017       .  S
O52          C62   1.280       .  A
O53         Cu58   2.028       .  S
O53          C62   1.279       .  A
O54         Cu58   2.028       .  S
O54          C61   1.282       .  A
O55         Cu58   2.026       .  S
O55          C60   1.278       .  A
O56         Cu58   2.009       .  S
O56          C59   1.276       .  A
Cu57        Cu58   2.369       .  S
C59         C331   1.489   1_455  S
C60          C86   1.491       .  S
C62         C363   1.497   1_455  S
N63          C68   1.351       .  A
N63          C67   1.352       .  A
N63          H95   1.042       .  S
N64          C71   1.352       .  A
N64          C72   1.345       .  A
N65          C70   1.363       .  A
N65          C69   1.362       .  A
N65          H96   1.040       .  S
N66          C73   1.351       .  A
N66          C74   1.350       .  A
C67          C75   1.379       .  A
C67          C83   1.409       .  A
C68          C84   1.410       .  A
C68          C76   1.387       .  A
C69          C77   1.385       .  A
C69          C86   1.432       .  A
C70          C85   1.429       .  A
C70          C78   1.384       .  A
C71          C83   1.408       .  A
C71          C79   1.383       .  A
C72          C86   1.412       .  A
C72          C80   1.388       .  A
C73          C81   1.384       .  A
C73          C84   1.409       .  A
C74          C82   1.389       .  A
C74          C85   1.415       .  A
C75          C76   1.360       .  A
C75          H87   1.073       .  S
C76          H88   1.080       .  S
C77          C78   1.383       .  A
C77          H89   1.081       .  S
C78          H90   1.082       .  S
C79          C80   1.379       .  A
C79          H91   1.083       .  S
C80          H92   1.079       .  S
C81          C82   1.379       .  A
C81          H93   1.082   1_565  S
C82          H94   1.082   1_565  S
C83         C646   1.499       .  S
C84         C617   1.486       .  S
C97          C98   1.523       .  S
C97         C103   1.537       .  S
C97         C101   1.547       .  S
C97         C537   1.551       .  S
C98         H105   1.085       .  S
C98          C99   1.362       .  D
C99         C100   1.553       .  S
C99         C566   1.499       .  S
C100        C104   1.551       .  S
C100        C102   1.550       .  S
C100        H106   1.108       .  S
C101        H107   1.085       .  S
C101        C102   1.377       .  D
C102        C597   1.505       .  S
C103        H108   1.080       .  S
C103        C104   1.359       .  D
C104        C577   1.494       .  S
C109        C110   1.507       .  S
C109        C115   1.530       .  S
C109        C113   1.592       .  S
C109        C517   1.556       .  S
C110        H117   1.088       .  S
C110        C111   1.353   1_545  D
C111        C112   1.557       .  S
C111        C457   1.486       .  S
C112        C116   1.562       .  S
C112        C114   1.531   1_565  S
C112        H118   1.107       .  S
C113        H119   1.070       .  S
C113        C114   1.399       .  D
C114        C486   1.532       .  S
C115        H120   1.089       .  S
C115        C116   1.342   1_545  D
C116        C497   1.510       .  S
N121        C126   1.349       .  A
N121        C125   1.348       .  A
N121        H153   1.037       .  S
N122        C129   1.350       .  A
N122        C130   1.346       .  A
N123        C128   1.362       .  A
N123        C127   1.368       .  A
N123        H154   1.039       .  S
N124        C131   1.354       .  A
N124        C132   1.351       .  A
C125        C133   1.379       .  A
C125        C141   1.401       .  A
C126        C142   1.416       .  A
C126        C134   1.394       .  A
C127        C135   1.391       .  A
C127        C144   1.446       .  A
C128        C143   1.434       .  A
C128        C136   1.383       .  A
C129        C141   1.405       .  A
C129        C137   1.379       .  A
C130        C144   1.420       .  A
C130        C138   1.395       .  A
C131        C139   1.385       .  A
C131        C142   1.419       .  A
C132        C140   1.389   1_545  A
C132        C143   1.418       .  A
C133        C134   1.369       .  A
C133        H145   1.082       .  S
C134        H146   1.078       .  S
C135        C136   1.388       .  A
C135        H147   1.080       .  S
C136        H148   1.081       .  S
C137        C138   1.381       .  A
C137        H149   1.082       .  S
C138        H150   1.079       .  S
C139        C140   1.383   1_545  A
C139        H151   1.082   1_545  S
C140        H152   1.082       .  S
C141        C546   1.489       .  S
C142        C477   1.494       .  S
C143        C292   1.512       .  S
C144        C308   1.519       .  S
N155        C160   1.370       .  A
N155        C159   1.367       .  A
N155        H187   1.043       .  S
N156        C163   1.346       .  A
N156        C164   1.351       .  A
N157        C162   1.345       .  A
N157        C161   1.347       .  A
N157        H188   1.042       .  S
N158        C165   1.352       .  A
N158        C166   1.356       .  A
C159        C167   1.383       .  A
C159        C175   1.442       .  A
C160        C176   1.453       .  A
C160        C168   1.392       .  A
C161        C169   1.389       .  A
C161        C178   1.407       .  A
C162        C177   1.402       .  A
C162        C170   1.386       .  A
C163        C175   1.413       .  A
C163        C171   1.393       .  A
C164        C178   1.405       .  A
C164        C172   1.380       .  A
C165        C173   1.397       .  A
C165        C176   1.432       .  A
C166        C174   1.377       .  A
C166        C177   1.413       .  A
C167        C168   1.388       .  A
C167        H179   1.082       .  S
C168        H180   1.079       .  S
C169        C170   1.370       .  A
C169        H181   1.080       .  S
C170        H182   1.082       .  S
C171        C172   1.370       .  A
C171        H183   1.081       .  S
C172        H184   1.082       .  S
C173        C174   1.381       .  A
C173        H185   1.077       .  S
C174        H186   1.082       .  S
C175        C293   1.507       .  S
C176        C305   1.529       .  S
C177        C557   1.496       .  S
C178        C466   1.483       .  S
N189        C194   1.345       .  A
N189        C193   1.349       .  A
N189        H221   1.040       .  S
N190        C197   1.354       .  A
N190        C198   1.348       .  A
N191        C196   1.368       .  A
N191        C195   1.361       .  A
N191        H222   1.042       .  S
N192        C199   1.348       .  A
N192        C200   1.343       .  A
C193        C201   1.388       .  A
C193        C209   1.409       .  A
C194        C210   1.403       .  A
C194        C202   1.384       .  A
C195        C203   1.382       .  A
C195        C212   1.432       .  A
C196        C211   1.434       .  A
C196        C204   1.380       .  A
C197        C209   1.413       .  A
C197        C205   1.383       .  A
C198        C212   1.416       .  A
C198        C206   1.390       .  A
C199        C207   1.382       .  A
C199        C210   1.402       .  A
C200        C208   1.385       .  A
C200        C211   1.406       .  A
C201        C202   1.375       .  A
C201        H213   1.082       .  S
C202        H214   1.081       .  S
C203        C204   1.384       .  A
C203        H215   1.077       .  S
C204        H216   1.076       .  S
C205        C206   1.379       .  A
C205        H217   1.082       .  S
C206        H218   1.082       .  S
C207        C208   1.380       .  A
C207        H219   1.082       .  S
C208        H220   1.075       .  S
C209        C417   1.490       .  S
C210        C446   1.480       .  S
C211        C291   1.504       .  S
C212        C307   1.500       .  S
C223        C224   1.536       .  S
C223        C229   1.530       .  S
C223        C227   1.553       .  S
C223        C437   1.552       .  S
C224        H231   1.085       .  S
C224        C225   1.358       .  D
C225        C226   1.552       .  S
C225        C397   1.501       .  S
C226        C230   1.569       .  S
C226        C228   1.538       .  S
C226        H232   1.104   1_565  S
C227        H233   1.081       .  S
C227        C228   1.392       .  D
C228        C626   1.528       .  S
C229        H234   1.084   1_554  S
C229        C230   1.347       .  D
C230        C677   1.503   1_565  S
N235        C240   1.366       .  A
N235        C239   1.368       .  A
N235        H267   1.041       .  S
N236        C243   1.349       .  A
N236        C244   1.353       .  A
N237        C242   1.348       .  A
N237        C241   1.347       .  A
N237        H268   1.043       .  S
N238        C245   1.347       .  A
N238        C246   1.355       .  A
C239        C247   1.379       .  A
C239        C255   1.437       .  A
C240        C256   1.440       .  A
C240        C248   1.382       .  A
C241        C249   1.389       .  A
C241        C258   1.408       .  A
C242        C257   1.404       .  A
C242        C250   1.384       .  A
C243        C255   1.417       .  A
C243        C251   1.388       .  A
C244        C258   1.409       .  A
C244        C252   1.381       .  A
C245        C253   1.389       .  A
C245        C256   1.418       .  A
C246        C254   1.383       .  A
C246        C257   1.415       .  A
C247        C248   1.381       .  A
C247        H259   1.077       .  S
C248        H260   1.076       .  S
C249        C250   1.370       .  A
C249        H261   1.081       .  S
C250        H262   1.082       .  S
C251        C252   1.375       .  A
C251        H263   1.078   1_545  S
C252        H264   1.082   1_545  S
C253        C254   1.386       .  A
C253        H265   1.082       .  S
C254        H266   1.082       .  S
C255        C294   1.512       .  S
C256        C306   1.508       .  S
C257        C386   1.499       .  S
C258        C406   1.485       .  S
C269        C270   1.520       .  S
C269        C275   1.534       .  S
C269        C273   1.552       .  S
C269        C657   1.542       .  S
C270        H277   1.088       .  S
C270        C271   1.353       .  D
C271        C272   1.548       .  S
C271        C426   1.495       .  S
C272        C276   1.565       .  S
C272        C274   1.549       .  S
C272        H278   1.098       .  S
C273        H279   1.081       .  S
C273        C274   1.370       .  D
C274        C377   1.489       .  S
C275        H280   1.084       .  S
C275        C276   1.374       .  D
C276        C637   1.530       .  S
O281       Cu289   2.069       .  S
O281        C291   1.285       .  A
O282       Cu289   2.073       .  S
O282        C292   1.288   1_565  A
O283       Cu289   2.035       .  S
O283        C293   1.276       .  A
O284       Cu289   2.043       .  S
O284        C294   1.282   1_565  A
O285       Cu290   2.055   1_545  S
O285        C294   1.282       .  A
O286       Cu290   2.052       .  S
O286        C293   1.287       .  A
O287       Cu290   2.033   1_545  S
O287        C292   1.277       .  A
O288       Cu290   2.020       .  S
O288        C291   1.278       .  A
Cu289      Cu290   2.363       .  S
O295       Cu303   2.054       .  S
O295        C305   1.280       .  A
O296       Cu303   2.049       .  S
O296        C306   1.282       .  A
O297       Cu303   2.030       .  S
O297        C307   1.279       .  A
O298       Cu303   2.040       .  S
O298        C308   1.282       .  A
O299       Cu304   2.047       .  S
O299        C308   1.280       .  A
O300       Cu304   2.033       .  S
O300        C307   1.282       .  A
O301       Cu304   2.047       .  S
O301        C306   1.281       .  A
O302       Cu304   2.050       .  S
O302        C305   1.283       .  A
Cu303      Cu304   2.355       .  S
N309        C314   1.351       .  A
N309        C313   1.348       .  A
N309        H341   1.042       .  S
N310        C317   1.351       .  A
N310        C318   1.349       .  A
N311        C316   1.362       .  A
N311        C315   1.364       .  A
N311        H342   1.043       .  S
N312        C319   1.353       .  A
N312        C320   1.343       .  A
C313        C321   1.386       .  A
C313        C329   1.406       .  A
C314        C330   1.412       .  A
C314        C322   1.384       .  A
C315        C323   1.382   1_655  A
C315        C332   1.428       .  A
C316        C331   1.431       .  A
C316        C324   1.384   1_655  A
C317        C329   1.409       .  A
C317        C325   1.384       .  A
C318        C332   1.412       .  A
C318        C326   1.388       .  A
C319        C327   1.382       .  A
C319        C330   1.410       .  A
C320        C328   1.388       .  A
C320        C331   1.411       .  A
C321        C322   1.368       .  A
C321        H333   1.082       .  S
C322        H334   1.075       .  S
C323        C324   1.384       .  A
C323        H335   1.081       .  S
C324        H336   1.080       .  S
C325        C326   1.379       .  A
C325        H337   1.082       .  S
C326        H338   1.082       .  S
C327        C328   1.382       .  A
C327        H339   1.082       .  S
C328        H340   1.079       .  S
C329        C526   1.482       .  S
C330        C606   1.500       .  S
N343        C348   1.365       .  A
N343        C347   1.362       .  A
N343        H375   1.037       .  S
N344        C351   1.347       .  A
N344        C352   1.355       .  A
N345        C350   1.344       .  A
N345        C349   1.348       .  A
N345        H376   1.036       .  S
N346        C353   1.351       .  A
N346        C354   1.352       .  A
C347        C355   1.389   1_655  A
C347        C363   1.438       .  A
C348        C364   1.436       .  A
C348        C356   1.385   1_655  A
C349        C357   1.386       .  A
C349        C366   1.405       .  A
C350        C365   1.401       .  A
C350        C358   1.388       .  A
C351        C363   1.422       .  A
C351        C359   1.395       .  A
C352        C366   1.409       .  A
C352        C360   1.378       .  A
C353        C361   1.393   1_565  A
C353        C364   1.419       .  A
C354        C362   1.380       .  A
C354        C365   1.406       .  A
C355        C356   1.385       .  A
C355        H367   1.081       .  S
C356        H368   1.081       .  S
C357        C358   1.371       .  A
C357        H369   1.082       .  S
C358        H370   1.081       .  S
C359        C360   1.373       .  A
C359        H371   1.079       .  S
C360        H372   1.082       .  S
C361        C362   1.372   1_545  A
C361        H373   1.080       .  S
C362        H374   1.083   1_565  S
C365        C506   1.479       .  S
C366        C586   1.489       .  S
C377        C378   1.399       .  A
C377        C382   1.397       .  A
C378        C379   1.410       .  A
C378       Br390   1.916       .  S
C379        C380   1.414       .  A
C379       Br394   1.926       .  S
C380        C381   1.414       .  A
C380        C383   1.491       .  S
C381        C382   1.405       .  A
C381       Br389   1.922       .  S
C382       Br393   1.921       .  S
C383        C384   1.414       .  A
C383        C388   1.407       .  A
C384        C385   1.414       .  A
C384       Br395   1.932       .  S
C385        C386   1.411       .  A
C385       Br391   1.924       .  S
C386        C387   1.417       .  A
C387        C388   1.407       .  A
C387       Br396   1.929       .  S
C388       Br392   1.932       .  S
C397        C398   1.419       .  A
C397        C402   1.409   1_565  A
C398        C399   1.405       .  A
C398       Br410   1.912       .  S
C399        C400   1.400       .  A
C399       Br414   1.934       .  S
C400        C401   1.409   1_565  A
C400        C403   1.484   1_565  S
C401        C402   1.410       .  A
C401       Br409   1.925       .  S
C402       Br413   1.915       .  S
C403        C404   1.409       .  A
C403        C408   1.411       .  A
C404        C405   1.406       .  A
C404       Br415   1.930       .  S
C405        C406   1.410       .  A
C405       Br411   1.928       .  S
C406        C407   1.407       .  A
C407        C408   1.406       .  A
C407       Br416   1.927       .  S
C408       Br412   1.928   1_545  S
C417        C418   1.411       .  A
C417        C422   1.409       .  A
C418        C419   1.411       .  A
C418       Br430   1.924       .  S
C419        C420   1.408       .  A
C419      Br1130   1.927       .  S
C420        C421   1.411       .  A
C420       C1119   1.482       .  S
C421        C422   1.403       .  A
C421       Br429   1.934       .  S
C422       Br433   1.929       .  S
C423        C424   1.404       .  A
C423        C428   1.413       .  A
C423       C1116   1.491       .  S
C424        C425   1.403       .  A
C424       Br435   1.935       .  S
C425        C426   1.417       .  A
C425       Br431   1.918       .  S
C426        C427   1.411       .  A
C427        C428   1.416       .  A
C427       Br436   1.927       .  S
C428      Br1128   1.926       .  S
Br432      C1124   1.925       .  S
Br434      C1115   1.927       .  S
C437        C438   1.405       .  A
C437        C442   1.414   1_554  A
C438        C439   1.406       .  A
C438       Br450   1.917       .  S
C439        C440   1.412   1_554  A
C439       Br454   1.921       .  S
C440       C1137   1.408       .  A
C440       C1139   1.482       .  S
C441       C1136   1.408       .  A
C441       C1138   1.403       .  A
C441       Br449   1.925       .  S
C442       C1137   1.408       .  A
C442      Br1149   1.924       .  S
C443        C444   1.414       .  A
C443        C448   1.407       .  A
C443       C1136   1.482       .  S
C444        C445   1.407       .  A
C444       Br455   1.927       .  S
C445        C446   1.403       .  A
C445       Br451   1.926       .  S
C446        C447   1.411       .  A
C447        C448   1.404       .  A
C447       Br456   1.930       .  S
C448       Br452   1.929       .  S
Br453      C1138   1.925       .  S
C457        C458   1.417       .  A
C457        C462   1.407       .  A
C458       C1155   1.401       .  A
C458       Br470   1.914   1_565  S
C459       C1154   1.400       .  A
C459       C1156   1.401       .  A
C459       Br474   1.936   1_565  S
C460        C461   1.410       .  A
C460       C1155   1.401       .  A
C460       C1159   1.478       .  S
C461        C462   1.409       .  A
C461       Br469   1.924       .  S
C462       Br473   1.924       .  S
C463        C464   1.406       .  A
C463        C468   1.411       .  A
C463       C1156   1.476       .  S
C464        C465   1.403       .  A
C464      Br1171   1.932       .  S
C465        C466   1.413       .  A
C465       Br471   1.929       .  S
C466        C467   1.405       .  A
C467        C468   1.404       .  A
C467       Br476   1.928       .  S
C468       Br472   1.930       .  S
Br475      C1160   1.930       .  S
C477        C478   1.412       .  A
C477        C482   1.413       .  A
C478        C479   1.412       .  A
C478       Br490   1.927       .  S
C479        C480   1.412       .  A
C479       Br494   1.929       .  S
C480        C481   1.407       .  A
C480        C483   1.489       .  S
C481        C482   1.405       .  A
C481       Br489   1.930       .  S
C482       Br493   1.928       .  S
C483        C484   1.409       .  A
C483        C488   1.392       .  A
C484        C485   1.419       .  A
C484       Br495   1.922       .  S
C485        C486   1.424       .  A
C485       Br491   1.924       .  S
C486        C487   1.428       .  A
C487        C488   1.402       .  A
C487       Br496   1.905   1_545  S
C488       Br492   1.935   1_545  S
C497        C498   1.412       .  A
C497        C502   1.440   1_565  A
C498        C499   1.413       .  A
C498       Br510   1.925       .  S
C499        C500   1.412       .  A
C499       Br514   1.927       .  S
C500        C501   1.397   1_565  A
C500        C503   1.482       .  S
C501        C502   1.402       .  A
C501       Br509   1.944       .  S
C502       Br513   1.939       .  S
C503        C504   1.417       .  A
C503        C508   1.407       .  A
C504        C505   1.405       .  A
C504       Br515   1.928   1_565  S
C505        C506   1.402       .  A
C505       Br511   1.930   1_565  S
C506        C507   1.413       .  A
C507        C508   1.401       .  A
C507       Br516   1.932       .  S
C508       Br512   1.932       .  S
C517        C518   1.421       .  A
C517        C522   1.440       .  A
C518       C1215   1.418       .  A
C518       Br530   1.925       .  S
C519        C520   1.407       .  A
C519       C1214   1.412       .  A
C519       Br534   1.930       .  S
C520       C1217   1.397       .  A
C520        C523   1.477       .  S
C521        C522   1.404   1_556  A
C521       C1216   1.398       .  A
C521       Br529   1.938       .  S
C522       Br533   1.943   1_544  S
C523        C524   1.406       .  A
C523        C528   1.411       .  A
C524        C525   1.404       .  A
C524       Br535   1.930       .  S
C525        C526   1.411       .  A
C525       Br531   1.926       .  S
C526        C527   1.406       .  A
C527        C528   1.405       .  A
C527       Br536   1.926       .  S
C528      Br1228   1.930       .  S
Br532      C1224   1.929   1_554  S
C537        C538   1.416       .  A
C537        C542   1.413       .  A
C538        C539   1.410       .  A
C538       Br550   1.926       .  S
C539        C540   1.412       .  A
C539       Br554   1.929       .  S
C540        C541   1.414       .  A
C540        C543   1.493       .  S
C541        C542   1.407       .  A
C541       Br549   1.931       .  S
C542       Br553   1.928       .  S
C543        C544   1.415       .  A
C543        C548   1.412       .  A
C544        C545   1.410       .  A
C544       Br555   1.929       .  S
C545        C546   1.407       .  A
C545       Br551   1.928       .  S
C546        C547   1.412       .  A
C547        C548   1.407       .  A
C547       Br556   1.931       .  S
C548       Br552   1.934       .  S
C557        C558   1.413       .  A
C557        C562   1.404       .  A
C558        C559   1.408       .  A
C558       Br570   1.924       .  S
C559        C560   1.411       .  A
C559      Br1270   1.930       .  S
C560        C561   1.417       .  A
C560       C1259   1.501       .  S
C561        C562   1.411       .  A
C561       Br569   1.917       .  S
C562       Br573   1.926       .  S
C563        C564   1.416       .  A
C563        C568   1.410       .  A
C563       C1256   1.491       .  S
C564        C565   1.413       .  A
C564      Br1271   1.927   1_554  S
C565        C566   1.406       .  A
C565       Br571   1.923       .  S
C566        C567   1.414       .  A
C567        C568   1.404       .  A
C567       Br576   1.930       .  S
C568       Br572   1.933       .  S
Br574      C1255   1.931       .  S
Br575      C1260   1.929       .  S
C577        C578   1.412       .  A
C577        C582   1.423       .  A
C578        C579   1.411       .  A
C578       Br590   1.928       .  S
C579        C580   1.410       .  A
C579       Br594   1.928       .  S
C580        C581   1.404       .  A
C580        C583   1.486       .  S
C581        C582   1.404       .  A
C581       Br589   1.934       .  S
C582       Br593   1.936       .  S
C583        C584   1.409       .  A
C583        C588   1.412       .  A
C584        C585   1.405       .  A
C584       Br595   1.932       .  S
C585        C586   1.411       .  A
C585       Br591   1.929       .  S
C586        C587   1.409       .  A
C587        C588   1.409       .  A
C587       Br596   1.927       .  S
C588       Br592   1.928       .  S
C597        C598   1.415       .  A
C597        C602   1.408       .  A
C598       C1295   1.420   1_554  A
C598       Br610   1.925       .  S
C599       C1294   1.415       .  A
C599       C1296   1.413       .  A
C599       Br614   1.931       .  S
C600        C601   1.413       .  A
C600       C1295   1.418   1_554  A
C600       C1299   1.510   1_554  S
C601        C602   1.404       .  A
C601       Br609   1.932       .  S
C602       Br613   1.910       .  S
C603        C604   1.417       .  A
C603        C608   1.418       .  A
C603       C1296   1.506       .  S
C604        C605   1.407       .  A
C604       Br615   1.930       .  S
C605        C606   1.407       .  A
C605       Br611   1.925       .  S
C606        C607   1.409       .  A
C607        C608   1.415       .  A
C607       Br616   1.922       .  S
C608       Br612   1.929       .  S
C617        C618   1.413       .  A
C617        C622   1.409       .  A
C618        C619   1.408       .  A
C618       Br630   1.929       .  S
C619        C620   1.409       .  A
C619       Br634   1.929       .  S
C620        C621   1.410       .  A
C620        C623   1.486       .  S
C621        C622   1.405       .  A
C621       Br629   1.931       .  S
C622       Br633   1.930       .  S
C623        C624   1.397       .  A
C623        C628   1.404       .  A
C624        C625   1.410       .  A
C624       Br635   1.941   1_565  S
C625        C626   1.439       .  A
C625       Br631   1.931   1_565  S
C626        C627   1.429       .  A
C627        C628   1.411       .  A
C627       Br636   1.927       .  S
C628       Br632   1.938       .  S
C637        C638   1.418       .  A
C637        C642   1.418       .  A
C638        C639   1.405       .  A
C638       Br650   1.926       .  S
C639        C640   1.411       .  A
C639       Br654   1.929       .  S
C640        C641   1.411       .  A
C640        C643   1.499       .  S
C641        C642   1.417       .  A
C641       Br649   1.932       .  S
C642       Br653   1.920       .  S
C643        C644   1.412       .  A
C643        C648   1.413       .  A
C644        C645   1.408       .  A
C644       Br655   1.932       .  S
C645        C646   1.414       .  A
C645       Br651   1.932       .  S
C646        C647   1.413       .  A
C647        C648   1.413       .  A
C647       Br656   1.928       .  S
C648       Br652   1.929       .  S
C657        C658   1.421       .  A
C657        C662   1.427       .  A
C658        C659   1.411       .  A
C658       Br670   1.929       .  S
C659        C660   1.408   1_554  A
C659       Br674   1.931   1_554  S
C660        C661   1.399   1_556  A
C660       C1359   1.478       .  S
C661        C662   1.399       .  A
C661      Br1365   1.934       .  S
C662       Br673   1.934       .  S
C663        C664   1.413       .  A
C663        C668   1.406       .  A
C663       C1356   1.480       .  S
C664        C665   1.406       .  A
C664       Br675   1.928       .  S
C665        C666   1.407       .  A
C665       Br671   1.931       .  S
C666        C667   1.413       .  A
C667        C668   1.401       .  A
C667       Br676   1.931       .  S
C668      Br1368   1.932       .  S
Br669      C1357   1.934       .  S
Br672      C1364   1.933   1_554  S
C677        C678   1.432       .  A
C677        C682   1.415       .  A
C678       C1375   1.402   1_554  A
C678       Br690   1.926   1_545  S
C679       C1374   1.404       .  A
C679       C1376   1.401       .  A
C679       Br694   1.938   1_545  S
C680        C681   1.405       .  A
C680       C1375   1.398       .  A
C680       C1379   1.476       .  S
C681        C682   1.410   1_556  A
C681       Br689   1.928       .  S
C682       Br693   1.921       .  S
C683        C684   1.413       .  A
C683        C688   1.406       .  A
C683       C1376   1.482       .  S
C684        C685   1.409       .  A
C684       Br695   1.928       .  S
C685        C686   1.407       .  A
C685       Br691   1.927       .  S
C686        C687   1.412       .  A
C687        C688   1.402       .  A
C687       Br696   1.928       .  S
C688      Br1388   1.931       .  S
Br692      C1384   1.932   1_554  S
N697        C702   1.347       .  A
N697        C701   1.353       .  A
N697        H729   1.042       .  S
N698        C705   1.347       .  A
N698        C706   1.344       .  A
N699        C704   1.354       .  A
N699        C703   1.353       .  A
N699        H730   1.040       .  S
N700        C707   1.358       .  A
N700        C708   1.360       .  A
C701        C709   1.382       .  A
C701        C717   1.406       .  A
C702        C718   1.412       .  A
C702        C710   1.393       .  A
C703        C711   1.384       .  A
C703        C720   1.413       .  A
C704        C719   1.419       .  A
C704        C712   1.390       .  A
C705        C717   1.406       .  A
C705        C713   1.387       .  A
C706        C720   1.404       .  A
C706        C714   1.386       .  A
C707        C715   1.387       .  A
C707        C718   1.428       .  A
C708        C716   1.385       .  A
C708        C719   1.429       .  A
C709        C710   1.371       .  A
C709        H721   1.082       .  S
C710        H722   1.079       .  S
C711        C712   1.377       .  A
C711        H723   1.082       .  S
C712        H724   1.080       .  S
C713        C714   1.368       .  A
C713        H725   1.081       .  S
C714        H726   1.082       .  S
C715        C716   1.382       .  A
C715        H727   1.081       .  S
C716        H728   1.081       .  S
C717       C1362   1.484       .  S
C718        C757   1.485       .  S
C719        C742   1.505       .  S
C720       C1382   1.481       .  S
O731       Cu739   2.029   1_565  S
O731        C741   1.281       .  A
O732       Cu739   2.029       .  S
O732        C742   1.278       .  A
O733       Cu739   2.038   1_565  S
O733        C743   1.281       .  A
O734       Cu739   2.050       .  S
O734        C744   1.282       .  A
O735       Cu740   2.039       .  S
O735        C744   1.280       .  A
O736       Cu740   2.038   1_565  S
O736        C743   1.280       .  A
O737       Cu740   2.049       .  S
O737        C742   1.284       .  A
O738       Cu740   2.046   1_565  S
O738        C741   1.280       .  A
Cu739      Cu740   2.366       .  S
C741       C1060   1.505   1_455  S
C743        C781   1.499       .  S
C744       C1028   1.501   1_455  S
O745       Cu753   2.052       .  S
O745        C755   1.283       .  A
O746       Cu753   2.034       .  S
O746        C756   1.281       .  A
O747       Cu753   2.001       .  S
O747        C757   1.274       .  A
O748       Cu753   2.001       .  S
O748        C758   1.278       .  A
O749       Cu754   2.020       .  S
O749        C758   1.277       .  A
O750       Cu754   2.019       .  S
O750        C757   1.281       .  A
O751       Cu754   2.027       .  S
O751        C756   1.278       .  A
O752       Cu754   2.016       .  S
O752        C755   1.277       .  A
Cu753      Cu754   2.371       .  S
C755       C1027   1.494   1_455  S
C756        C782   1.491       .  S
C758       C1059   1.487   1_455  S
N759        C764   1.352       .  A
N759        C763   1.353       .  A
N759        H791   1.040       .  S
N760        C767   1.352       .  A
N760        C768   1.343       .  A
N761        C766   1.364       .  A
N761        C765   1.363       .  A
N761        H792   1.041       .  S
N762        C769   1.349       .  A
N762        C770   1.348       .  A
C763        C771   1.378       .  A
C763        C779   1.409       .  A
C764        C780   1.412       .  A
C764        C772   1.388       .  A
C765        C773   1.384       .  A
C765        C782   1.431       .  A
C766        C781   1.429       .  A
C766        C774   1.382       .  A
C767        C779   1.406       .  A
C767        C775   1.382       .  A
C768        C782   1.410       .  A
C768        C776   1.388       .  A
C769        C777   1.384       .  A
C769        C780   1.406       .  A
C770        C778   1.389       .  A
C770        C781   1.411       .  A
C771        C772   1.359       .  A
C771        H783   1.071       .  S
C772        H784   1.079       .  S
C773        C774   1.382       .  A
C773        H785   1.080       .  S
C774        H786   1.081       .  S
C775        C776   1.379       .  A
C775        H787   1.082       .  S
C776        H788   1.078       .  S
C777        C778   1.377       .  A
C777        H789   1.082   1_565  S
C778        H790   1.083   1_565  S
C779       C1342   1.497       .  S
C780       C1313   1.483       .  S
C793        C794   1.524       .  S
C793        C799   1.536       .  S
C793        C797   1.550       .  S
C793       C1233   1.552       .  S
C794        H801   1.085       .  S
C794        C795   1.359       .  D
C795        C796   1.554       .  S
C795       C1262   1.502       .  S
C796        C800   1.556       .  S
C796        C798   1.549       .  S
C796        H802   1.109       .  S
C797        H803   1.085       .  S
C797        C798   1.380       .  D
C798       C1293   1.505       .  S
C799        H804   1.079       .  S
C799        C800   1.359       .  D
C800       C1273   1.497       .  S
C805        C806   1.506       .  S
C805        C811   1.530       .  S
C805        C809   1.585       .  S
C805       C1213   1.547       .  S
C806        H813   1.088       .  S
C806        C807   1.351   1_545  D
C807        C808   1.555       .  S
C807       C1153   1.482       .  S
C808        C812   1.559       .  S
C808        C810   1.533   1_565  S
C808        H814   1.108       .  S
C809        H815   1.072       .  S
C809        C810   1.392       .  D
C810       C1182   1.524       .  S
C811        H816   1.089       .  S
C811        C812   1.346   1_545  D
C812       C1193   1.506       .  S
N817        C822   1.349       .  A
N817        C821   1.348       .  A
N817        H849   1.037       .  S
N818        C825   1.353       .  A
N818        C826   1.347       .  A
N819        C824   1.366       .  A
N819        C823   1.369       .  A
N819        H850   1.038       .  S
N820        C827   1.353       .  A
N820        C828   1.350       .  A
C821        C829   1.380       .  A
C821        C837   1.400       .  A
C822        C838   1.412       .  A
C822        C830   1.392       .  A
C823        C831   1.393       .  A
C823        C840   1.451       .  A
C824        C839   1.438       .  A
C824        C832   1.382       .  A
C825        C837   1.408       .  A
C825        C833   1.378       .  A
C826        C840   1.425       .  A
C826        C834   1.396       .  A
C827        C835   1.383       .  A
C827        C838   1.414       .  A
C828        C836   1.390       .  A
C828        C839   1.418       .  A
C829        C830   1.368       .  A
C829        H841   1.081       .  S
C830        H842   1.078       .  S
C831        C832   1.388       .  A
C831        H843   1.079       .  S
C832        H844   1.081       .  S
C833        C834   1.382       .  A
C833        H845   1.082       .  S
C834        H846   1.078       .  S
C835        C836   1.381       .  A
C835        H847   1.082   1_545  S
C836        H848   1.082   1_545  S
C837       C1242   1.496       .  S
C838       C1173   1.491       .  S
C839        C988   1.515       .  S
C840       C1004   1.521       .  S
N851        C856   1.369       .  A
N851        C855   1.369       .  A
N851        H883   1.042       .  S
N852        C859   1.347       .  A
N852        C860   1.351       .  A
N853        C858   1.346       .  A
N853        C857   1.346       .  A
N853        H884   1.041       .  S
N854        C861   1.349       .  A
N854        C862   1.354       .  A
C855        C863   1.384       .  A
C855        C871   1.444       .  A
C856        C872   1.452       .  A
C856        C864   1.392       .  A
C857        C865   1.389       .  A
C857        C874   1.405       .  A
C858        C873   1.402       .  A
C858        C866   1.385       .  A
C859        C871   1.416       .  A
C859        C867   1.394       .  A
C860        C874   1.405       .  A
C860        C868   1.379       .  A
C861        C869   1.398       .  A
C861        C872   1.428       .  A
C862        C870   1.376       .  A
C862        C873   1.407       .  A
C863        C864   1.389       .  A
C863        H875   1.081       .  S
C864        H876   1.079       .  S
C865        C866   1.371       .  A
C865        H877   1.081       .  S
C866        H878   1.083       .  S
C867        C868   1.372       .  A
C867        H879   1.080       .  S
C868        H880   1.082       .  S
C869        C870   1.377       .  A
C869        H881   1.077       .  S
C870        H882   1.082       .  S
C871        C989   1.513       .  S
C872       C1001   1.523       .  S
C873       C1253   1.491       .  S
C874       C1162   1.482       .  S
N885        C890   1.343       .  A
N885        C889   1.348       .  A
N885        H917   1.049       .  S
N886        C893   1.356       .  A
N886        C894   1.350       .  A
N887        C892   1.366       .  A
N887        C891   1.359       .  A
N887        H918   1.050       .  S
N888        C895   1.349       .  A
N888        C896   1.344       .  A
C889        C897   1.389   1_556  A
C889        C905   1.412       .  A
C890        C906   1.403       .  A
C890        C898   1.384       .  A
C891        C899   1.382       .  A
C891        C908   1.432       .  A
C892        C907   1.433       .  A
C892        C900   1.380       .  A
C893        C905   1.417       .  A
C893        C901   1.383       .  A
C894        C908   1.420       .  A
C894        C902   1.390       .  A
C895        C903   1.383       .  A
C895        C906   1.405       .  A
C896        C904   1.383       .  A
C896        C907   1.404       .  A
C897        C898   1.377   1_554  A
C897        H909   1.082       .  S
C898        H910   1.082   1_556  S
C899        C900   1.385       .  A
C899        H911   1.077       .  S
C900        H912   1.076       .  S
C901        C902   1.378       .  A
C901        H913   1.082       .  S
C902        H914   1.082       .  S
C903        C904   1.383       .  A
C903        H915   1.082       .  S
C904        H916   1.076       .  S
C905       C1113   1.495   1_556  S
C906       C1142   1.484       .  S
C907        C987   1.506       .  S
C908       C1003   1.502       .  S
C919        C920   1.533       .  S
C919        C925   1.534       .  S
C919        C923   1.546       .  S
C919       C1133   1.546       .  S
C920        H927   1.086       .  S
C920        C921   1.352       .  D
C921        C922   1.552       .  S
C921       C1093   1.496   1_565  S
C922        C926   1.564   1_565  S
C922        C924   1.543       .  S
C922        H928   1.104   1_565  S
C923        H929   1.082       .  S
C923        C924   1.387       .  D
C924       C1322   1.522       .  S
C925        H930   1.083       .  S
C925        C926   1.352   1_565  D
C926       C1373   1.500       .  S
N931        C936   1.366       .  A
N931        C935   1.367       .  A
N931        H963   1.041       .  S
N932        C939   1.347       .  A
N932        C940   1.353       .  A
N933        C938   1.347       .  A
N933        C937   1.348       .  A
N933        H964   1.040       .  S
N934        C941   1.346       .  A
N934        C942   1.353       .  A
C935        C943   1.379       .  A
C935        C951   1.434       .  A
C936        C952   1.436       .  A
C936        C944   1.381       .  A
C937        C945   1.387       .  A
C937        C954   1.407       .  A
C938        C953   1.406       .  A
C938        C946   1.386       .  A
C939        C951   1.411       .  A
C939        C947   1.385       .  A
C940        C954   1.409       .  A
C940        C948   1.382       .  A
C941        C949   1.389       .  A
C941        C952   1.414       .  A
C942        C950   1.383       .  A
C942        C953   1.413       .  A
C943        C944   1.383       .  A
C943        H955   1.077       .  S
C944        H956   1.075       .  S
C945        C946   1.372       .  A
C945        H957   1.082       .  S
C946        H958   1.082       .  S
C947        C948   1.378       .  A
C947        H959   1.077   1_545  S
C948        H960   1.082   1_545  S
C949        C950   1.386       .  A
C949        H961   1.083       .  S
C950        H962   1.082       .  S
C951        C990   1.509       .  S
C952       C1002   1.506       .  S
C953       C1082   1.493       .  S
C954       C1102   1.488       .  S
C965        C966   1.521       .  S
C965        C971   1.529       .  S
C965        C969   1.560       .  S
C965       C1353   1.543       .  S
C966        H973   1.087       .  S
C966        C967   1.354       .  D
C967        C968   1.541       .  S
C967       C1122   1.484       .  S
C968        C972   1.558       .  S
C968        C970   1.545       .  S
C968        H974   1.101       .  S
C969        H975   1.081       .  S
C969        C970   1.375       .  D
C970       C1073   1.493       .  S
C971        H976   1.084       .  S
C971        C972   1.369       .  D
C972       C1333   1.520       .  S
O977       Cu985   2.060       .  S
O977        C987   1.283       .  A
O978       Cu985   2.062   1_545  S
O978        C988   1.286       .  A
O979       Cu985   2.045       .  S
O979        C989   1.278       .  A
O980       Cu985   2.046   1_545  S
O980        C990   1.283       .  A
O981       Cu986   2.047   1_545  S
O981        C990   1.281       .  A
O982       Cu986   2.048       .  S
O982        C989   1.286       .  A
O983       Cu986   2.049   1_545  S
O983        C988   1.279       .  A
O984       Cu986   2.041       .  S
O984        C987   1.281       .  A
Cu985      Cu986   2.361       .  S
O991       Cu999   2.046       .  S
O991       C1001   1.279       .  A
O992       Cu999   2.040       .  S
O992       C1002   1.281       .  A
O993       Cu999   2.037       .  S
O993       C1003   1.281       .  A
O994       Cu999   2.048       .  S
O994       C1004   1.283       .  A
O995      Cu1000   2.041       .  S
O995       C1004   1.278       .  A
O996      Cu1000   2.026       .  S
O996       C1003   1.280       .  A
O997      Cu1000   2.047       .  S
O997       C1002   1.282       .  A
O998      Cu1000   2.037       .  S
O998       C1001   1.282       .  A
Cu999     Cu1000   2.354       .  S
N1005      C1010   1.349       .  A
N1005      C1009   1.348       .  A
N1005      H1037   1.043       .  S
N1006      C1013   1.352       .  A
N1006      C1014   1.348       .  A
N1007      C1012   1.363       .  A
N1007      C1011   1.364   1_655  A
N1007      H1038   1.043       .  S
N1008      C1015   1.354       .  A
N1008      C1016   1.345       .  A
C1009      C1017   1.386       .  A
C1009      C1025   1.405       .  A
C1010      C1026   1.408       .  A
C1010      C1018   1.383       .  A
C1011      C1019   1.383       .  A
C1011      C1028   1.431   1_455  A
C1012      C1027   1.432       .  A
C1012      C1020   1.384   1_655  A
C1013      C1025   1.412       .  A
C1013      C1021   1.384       .  A
C1014      C1028   1.414       .  A
C1014      C1022   1.389       .  A
C1015      C1023   1.382       .  A
C1015      C1026   1.412       .  A
C1016      C1024   1.389       .  A
C1016      C1027   1.413       .  A
C1017      C1018   1.368       .  A
C1017      H1029   1.082       .  S
C1018      H1030   1.076       .  S
C1019      C1020   1.384       .  A
C1019      H1031   1.081       .  S
C1020      H1032   1.081       .  S
C1021      C1022   1.384       .  A
C1021      H1033   1.082       .  S
C1022      H1034   1.082       .  S
C1023      C1024   1.384       .  A
C1023      H1035   1.081       .  S
C1024      H1036   1.081       .  S
C1025      C1222   1.490       .  S
C1026      C1302   1.502       .  S
N1039      C1044   1.364       .  A
N1039      C1043   1.360       .  A
N1039      H1071   1.042       .  S
N1040      C1047   1.344       .  A
N1040      C1048   1.352       .  A
N1041      C1046   1.343       .  A
N1041      C1045   1.350       .  A
N1041      H1072   1.041       .  S
N1042      C1049   1.351       .  A
N1042      C1050   1.350       .  A
C1043      C1051   1.389   1_655  A
C1043      C1059   1.434       .  A
C1044      C1060   1.433       .  A
C1044      C1052   1.385   1_655  A
C1045      C1053   1.384       .  A
C1045      C1062   1.404       .  A
C1046      C1061   1.403       .  A
C1046      C1054   1.389       .  A
C1047      C1059   1.417       .  A
C1047      C1055   1.396       .  A
C1048      C1062   1.405       .  A
C1048      C1056   1.378       .  A
C1049      C1057   1.391       .  A
C1049      C1060   1.417       .  A
C1050      C1058   1.381       .  A
C1050      C1061   1.407       .  A
C1051      C1052   1.386       .  A
C1051      H1063   1.081       .  S
C1052      H1064   1.081       .  S
C1053      C1054   1.372       .  A
C1053      H1065   1.082       .  S
C1054      H1066   1.081       .  S
C1055      C1056   1.373       .  A
C1055      H1067   1.079       .  S
C1056      H1068   1.082       .  S
C1057      C1058   1.374       .  A
C1057      H1069   1.080   1_565  S
C1058      H1070   1.082   1_565  S
C1061      C1202   1.477       .  S
C1062      C1282   1.488       .  S
C1073      C1074   1.399       .  A
C1073      C1078   1.400       .  A
C1074      C1075   1.409       .  A
C1074     Br1086   1.913       .  S
C1075      C1076   1.413       .  A
C1075     Br1090   1.928       .  S
C1076      C1077   1.416       .  A
C1076      C1079   1.495       .  S
C1077      C1078   1.411       .  A
C1077     Br1085   1.922       .  S
C1078     Br1089   1.922       .  S
C1079      C1080   1.416       .  A
C1079      C1084   1.410       .  A
C1080      C1081   1.414       .  A
C1080     Br1091   1.929       .  S
C1081      C1082   1.408       .  A
C1081     Br1087   1.924       .  S
C1082      C1083   1.410       .  A
C1083      C1084   1.406       .  A
C1083     Br1092   1.927       .  S
C1084     Br1088   1.929       .  S
C1093      C1094   1.413   1_545  A
C1093      C1098   1.412       .  A
C1094      C1095   1.406       .  A
C1094     Br1106   1.909       .  S
C1095      C1096   1.405   1_565  A
C1095     Br1110   1.934       .  S
C1096      C1097   1.411       .  A
C1096      C1099   1.489       .  S
C1097      C1098   1.411       .  A
C1097     Br1105   1.929       .  S
C1098     Br1109   1.920       .  S
C1099      C1100   1.410       .  A
C1099      C1104   1.413       .  A
C1100      C1101   1.404       .  A
C1100     Br1111   1.931       .  S
C1101      C1102   1.409       .  A
C1101     Br1107   1.926       .  S
C1102      C1103   1.408       .  A
C1103      C1104   1.410       .  A
C1103     Br1112   1.926       .  S
C1104     Br1108   1.928   1_545  S
C1113      C1114   1.411       .  A
C1113      C1118   1.409   1_554  A
C1114      C1115   1.414       .  A
C1114     Br1126   1.925       .  S
C1115      C1116   1.411       .  A
C1116      C1117   1.411       .  A
C1117      C1118   1.404   1_554  A
C1117     Br1125   1.934       .  S
C1118     Br1129   1.927       .  S
C1119      C1120   1.401       .  A
C1119      C1124   1.410       .  A
C1120      C1121   1.400       .  A
C1120     Br1131   1.932       .  S
C1121      C1122   1.416       .  A
C1121     Br1127   1.920       .  S
C1122      C1123   1.409       .  A
C1123      C1124   1.411       .  A
C1123     Br1132   1.928       .  S
C1133      C1134   1.410       .  A
C1133      C1138   1.410       .  A
C1134      C1135   1.408       .  A
C1134     Br1146   1.927       .  S
C1135      C1136   1.413       .  A
C1135     Br1150   1.925       .  S
C1137     Br1145   1.923       .  S
C1139      C1140   1.413       .  A
C1139      C1144   1.406       .  A
C1140      C1141   1.407       .  A
C1140     Br1151   1.929       .  S
C1141      C1142   1.403       .  A
C1141     Br1147   1.924       .  S
C1142      C1143   1.413       .  A
C1143      C1144   1.407       .  A
C1143     Br1152   1.929       .  S
C1144     Br1148   1.927       .  S
C1153      C1154   1.417       .  A
C1153      C1158   1.408       .  A
C1154     Br1166   1.917   1_565  S
C1155     Br1170   1.935   1_565  S
C1156      C1157   1.408       .  A
C1157      C1158   1.407       .  A
C1157     Br1165   1.924       .  S
C1158     Br1169   1.924       .  S
C1159      C1160   1.406       .  A
C1159      C1164   1.412   1_554  A
C1160      C1161   1.402   1_554  A
C1161      C1162   1.411       .  A
C1161     Br1167   1.927   1_556  S
C1162      C1163   1.405       .  A
C1163      C1164   1.406       .  A
C1163     Br1172   1.927       .  S
C1164     Br1168   1.928       .  S
C1173      C1174   1.408       .  A
C1173      C1178   1.411       .  A
C1174      C1175   1.410       .  A
C1174     Br1186   1.928       .  S
C1175      C1176   1.415       .  A
C1175     Br1190   1.930       .  S
C1176      C1177   1.411       .  A
C1176      C1179   1.493       .  S
C1177      C1178   1.407       .  A
C1177     Br1185   1.931       .  S
C1178     Br1189   1.928       .  S
C1179      C1180   1.412       .  A
C1179      C1184   1.396       .  A
C1180      C1181   1.419       .  A
C1180     Br1191   1.921       .  S
C1181      C1182   1.422       .  A
C1181     Br1187   1.927       .  S
C1182      C1183   1.420       .  A
C1183      C1184   1.400       .  A
C1183     Br1192   1.906   1_545  S
C1184     Br1188   1.932   1_545  S
C1193      C1194   1.413       .  A
C1193      C1198   1.438   1_565  A
C1194      C1195   1.411       .  A
C1194     Br1206   1.924       .  S
C1195      C1196   1.409       .  A
C1195     Br1210   1.927       .  S
C1196      C1197   1.398   1_565  A
C1196      C1199   1.479       .  S
C1197      C1198   1.402       .  A
C1197     Br1205   1.942       .  S
C1198     Br1209   1.940       .  S
C1199      C1200   1.414       .  A
C1199      C1204   1.407       .  A
C1200      C1201   1.404       .  A
C1200     Br1211   1.926   1_565  S
C1201      C1202   1.403       .  A
C1201     Br1207   1.930       .  S
C1202      C1203   1.412       .  A
C1203      C1204   1.401       .  A
C1203     Br1212   1.932       .  S
C1204     Br1208   1.932       .  S
C1213      C1214   1.420       .  A
C1213      C1218   1.438       .  A
C1214     Br1226   1.926       .  S
C1215      C1216   1.410   1_554  A
C1215     Br1230   1.929       .  S
C1216      C1219   1.489       .  S
C1217      C1218   1.401       .  A
C1217     Br1225   1.938       .  S
C1218     Br1229   1.944   1_545  S
C1219      C1220   1.408       .  A
C1219      C1224   1.413       .  A
C1220      C1221   1.408       .  A
C1220     Br1231   1.929       .  S
C1221      C1222   1.412       .  A
C1221     Br1227   1.926       .  S
C1222      C1223   1.407       .  A
C1223      C1224   1.410       .  A
C1223     Br1232   1.926       .  S
C1233      C1234   1.411       .  A
C1233      C1238   1.411       .  A
C1234      C1235   1.408       .  A
C1234     Br1246   1.915       .  S
C1235      C1236   1.412       .  A
C1235     Br1250   1.929       .  S
C1236      C1237   1.418       .  A
C1236      C1239   1.498       .  S
C1237      C1238   1.411       .  A
C1237     Br1245   1.928       .  S
C1238     Br1249   1.929       .  S
C1239      C1240   1.415       .  A
C1239      C1244   1.413       .  A
C1240      C1241   1.413       .  A
C1240     Br1251   1.927       .  S
C1241      C1242   1.409       .  A
C1241     Br1247   1.926       .  S
C1242      C1243   1.414       .  A
C1243      C1244   1.408       .  A
C1243     Br1252   1.931       .  S
C1244     Br1248   1.935       .  S
C1253      C1254   1.408   1_556  A
C1253      C1258   1.405       .  A
C1254      C1255   1.402       .  A
C1254     Br1266   1.921       .  S
C1255      C1256   1.408       .  A
C1256      C1257   1.416   1_554  A
C1257      C1258   1.412       .  A
C1257     Br1265   1.924       .  S
C1258     Br1269   1.924       .  S
C1259      C1260   1.418       .  A
C1259      C1264   1.413       .  A
C1260      C1261   1.415       .  A
C1261      C1262   1.406       .  A
C1261     Br1267   1.921       .  S
C1262      C1263   1.413       .  A
C1263      C1264   1.409       .  A
C1263     Br1272   1.929       .  S
C1264     Br1268   1.930       .  S
C1273      C1274   1.411       .  A
C1273      C1278   1.424       .  A
C1274      C1275   1.412       .  A
C1274     Br1286   1.927       .  S
C1275      C1276   1.411       .  A
C1275     Br1290   1.928       .  S
C1276      C1277   1.404       .  A
C1276      C1279   1.488       .  S
C1277      C1278   1.407       .  A
C1277     Br1285   1.934       .  S
C1278     Br1289   1.937       .  S
C1279      C1280   1.410       .  A
C1279      C1284   1.413       .  A
C1280      C1281   1.404       .  A
C1280     Br1291   1.932       .  S
C1281      C1282   1.409       .  A
C1281     Br1287   1.927       .  S
C1282      C1283   1.408       .  A
C1283      C1284   1.411       .  A
C1283     Br1292   1.926       .  S
C1284     Br1288   1.928       .  S
C1293      C1294   1.414       .  A
C1293      C1298   1.412       .  A
C1294     Br1306   1.922       .  S
C1295     Br1310   1.930       .  S
C1296      C1297   1.417       .  A
C1297      C1298   1.409       .  A
C1297     Br1305   1.936       .  S
C1298     Br1309   1.915       .  S
C1299      C1300   1.416       .  A
C1299      C1304   1.421       .  A
C1300      C1301   1.409       .  A
C1300     Br1311   1.929       .  S
C1301      C1302   1.409       .  A
C1301     Br1307   1.925       .  S
C1302      C1303   1.408       .  A
C1303      C1304   1.417       .  A
C1303     Br1312   1.923       .  S
C1304     Br1308   1.930   1_556  S
C1313      C1314   1.409       .  A
C1313      C1318   1.411       .  A
C1314      C1315   1.405       .  A
C1314     Br1326   1.927       .  S
C1315      C1316   1.409       .  A
C1315     Br1330   1.929       .  S
C1316      C1317   1.409       .  A
C1316      C1319   1.482       .  S
C1317      C1318   1.405       .  A
C1317     Br1325   1.930       .  S
C1318     Br1329   1.930       .  S
C1319      C1320   1.395       .  A
C1319      C1324   1.404       .  A
C1320      C1321   1.407       .  A
C1320     Br1331   1.941   1_565  S
C1321      C1322   1.437       .  A
C1321     Br1327   1.927   1_565  S
C1322      C1323   1.430       .  A
C1323      C1324   1.410       .  A
C1323     Br1332   1.936       .  S
C1324     Br1328   1.933       .  S
C1333      C1334   1.411       .  A
C1333      C1338   1.410       .  A
C1334      C1335   1.401       .  A
C1334     Br1346   1.924       .  S
C1335      C1336   1.412       .  A
C1335     Br1350   1.926       .  S
C1336      C1337   1.414       .  A
C1336      C1339   1.496       .  S
C1337      C1338   1.416       .  A
C1337     Br1345   1.932       .  S
C1338     Br1349   1.918       .  S
C1339      C1340   1.412       .  A
C1339      C1344   1.415       .  A
C1340      C1341   1.406       .  A
C1340     Br1351   1.932       .  S
C1341      C1342   1.410       .  A
C1341     Br1347   1.929       .  S
C1342      C1343   1.413       .  A
C1343      C1344   1.414       .  A
C1343     Br1352   1.927       .  S
C1344     Br1348   1.931       .  S
C1353      C1354   1.416       .  A
C1353      C1358   1.430       .  A
C1354      C1355   1.411       .  A
C1354     Br1366   1.928       .  S
C1355      C1356   1.411       .  A
C1355     Br1370   1.932       .  S
C1356      C1357   1.399       .  A
C1357      C1358   1.401       .  A
C1358     Br1369   1.935       .  S
C1359      C1360   1.413       .  A
C1359      C1364   1.407       .  A
C1360      C1361   1.406       .  A
C1360     Br1371   1.929       .  S
C1361      C1362   1.405       .  A
C1361     Br1367   1.927       .  S
C1362      C1363   1.411       .  A
C1363      C1364   1.400       .  A
C1363     Br1372   1.931       .  S
C1373      C1374   1.428       .  A
C1373      C1378   1.409       .  A
C1374     Br1386   1.927   1_545  S
C1375     Br1390   1.942   1_545  S
C1376      C1377   1.408       .  A
C1377      C1378   1.410       .  A
C1377     Br1385   1.925       .  S
C1378     Br1389   1.919       .  S
C1379      C1380   1.411       .  A
C1379      C1384   1.406       .  A
C1380      C1381   1.406       .  A
C1380     Br1391   1.927       .  S
C1381      C1382   1.405       .  A
C1381     Br1387   1.926       .  S
C1382      C1383   1.411       .  A
C1383      C1384   1.400       .  A
C1383     Br1392   1.926       .  S
