geometry optimzed in LAMMPS
_audit_creation_date              2020-11-30 
_audit_creation_method            'lammps2cif' 
_symmetry_space_group_name_H-M    'P1' 
_symmetry_Int_Tables_number       1 
_symmetry_cell_setting            triclinic 
loop_ 
_symmetry_equiv_pos_as_xyz 
  x,y,z 
_cell_length_a                    37.50857205 
_cell_length_b                    37.983521305815295 
_cell_length_c                    73.85931195015596 
_cell_angle_alpha                 90.68814521436992 
_cell_angle_beta                  90.68206753612469 
_cell_angle_gamma                 120.43950771275503 
loop_ 
_atom_site_label 
_atom_site_type_symbol 
_atom_site_fract_x 
_atom_site_fract_y 
_atom_site_fract_z 
_atom_site_charge 
C1          C  0.33586248  0.17441038  0.54090366     0.46200
H2          H  0.33715842  0.17493022  0.52589908    -0.02800
C3          C  0.33332408  0.17202966  0.57598210     0.46300
H4          H  0.33259646  0.17138126  0.59101718    -0.02800
C5          C  0.37899543  0.19602289  0.55044411    -0.16500
C6          C  0.31283350  0.19475548  0.54918427    -0.16200
C7          C  0.31396737  0.13054288  0.54835760    -0.16600
C8          C  0.37711734  0.19468140  0.56896047    -0.16600
C9          C  0.31169763  0.19320802  0.56775973    -0.16200
C10         C  0.31317975  0.12978009  0.56693524    -0.16500
C11         C  0.16451429  0.33595046  0.45737081     0.46200
H12         H  0.16385464  0.33551022  0.44230859    -0.02800
C13         C  0.16578081  0.33623370  0.49254008     0.46300
H14         H  0.16616765  0.33683925  0.50757153    -0.02800
C15         C  0.18648547  0.31493375  0.46532857    -0.16500
C16         C  0.18659703  0.37872041  0.46581724    -0.16200
C17         C  0.12148299  0.31496142  0.46536612    -0.16600
C18         C  0.18690817  0.31430769  0.48390424    -0.16600
C19         C  0.18760243  0.37956754  0.48443241    -0.16200
C20         C  0.12175550  0.31487315  0.48396584    -0.16500
O21         O  0.09278102  0.24586273  0.69890439    -0.80100
O22         O  0.19039926  0.39111231  0.64838268    -0.64800
O23         O  0.16385257  0.31180809  0.68477434    -1.11400
C24         C  0.13000404  0.39856956  0.71769450     1.06800
O25         O  0.22782724  0.43985533  0.66853499    -0.78000
O26         O  0.22778265  0.42875111  0.70463299    -0.65600
Ni27       Ni  0.13005617  0.25503163  0.67943887     1.34900
C28         C  0.22628718  0.40033562  0.71403680     0.85500
O29         O  0.19682738  0.32414459  0.64997325    -0.78600
O30         O  0.16535174  0.25955733  0.65994070    -0.88800
C31         C  0.21694591  0.42794830  0.65218937     0.85100
O32         O  0.09158883  0.25738022  0.66309601    -0.67000
O33         O  0.15411190  0.42654907  0.70703855    -0.86300
C34         C  0.09278120  0.28556907  0.65362959     0.85900
C35         C  0.18973512  0.28756645  0.64937453     1.07500
H36         H  0.13009055  0.37038085  0.67769383     0.39300
O37         O  0.15598097  0.37419519  0.68241083    -1.09000
O38         O  0.19617909  0.36392023  0.71336393    -0.65600
Ni39       Ni  0.14320299  0.33604537  0.70123735     1.26300
O40         O  0.12326567  0.32186102  0.65383658    -0.65900
O41         O  0.12301989  0.36202890  0.71711310    -0.78200
C42         C  0.10334596  0.25830160  0.71519600     0.85300
O43         O  0.12937143  0.29529114  0.71891647    -0.65300
Ni44       Ni  0.18998201  0.43098103  0.68778589     1.27400
Ni45       Ni  0.17650828  0.34998153  0.66591499     1.26100
H46         H  0.18978314  0.31572054  0.68948942     0.39800
C47         C  0.48067318  0.00651559  0.79139317     0.46200
H48         H  0.47904693  0.00422807  0.77641968    -0.02800
C49         C  0.48318513  0.00817169  0.82648516     0.46300
H50         H  0.48490000  0.00973510  0.84148217    -0.02800
C51         C  0.50620800  0.48713851  0.80059156    -0.16500
C52         C  0.50266061  0.04997691  0.79935077    -0.16200
C53         C  0.43929926  0.48279830  0.79979188    -0.16600
C54         C  0.50690568  0.48908587  0.81912002    -0.16600
C55         C  0.50476711  0.05105693  0.81797060    -0.16200
C56         C  0.43935245  0.48527851  0.81833823    -0.16500
C57         C  0.14793439  0.34226921  0.87440193     0.46200
H58         H  0.14606038  0.34152946  0.85939911    -0.02800
C59         C  0.15101909  0.34298148  0.90959106     0.46300
H60         H  0.15296415  0.34382305  0.92463982    -0.02800
C61         C  0.12676198  0.29910484  0.88260654    -0.16500
C62         C  0.19238404  0.36474389  0.88241267    -0.16200
C63         C  0.12687890  0.36392361  0.88344548    -0.16600
C64         C  0.12866288  0.29990506  0.90123305    -0.16600
C65         C  0.19347129  0.36464747  0.90096918    -0.16200
C66         C  0.12829890  0.36354108  0.90203959    -0.16500
C67         C  0.35693092  0.16865004  0.15954052     0.46200
H68         H  0.35827415  0.16988822  0.17458045    -0.02800
C69         C  0.35339535  0.16592933  0.12436696     0.46300
H70         H  0.35122508  0.16475219  0.10933533    -0.02800
C71         C  0.37932963  0.14792787  0.15084103    -0.16500
C72         C  0.31246614  0.14472142  0.15153517    -0.16200
C73         C  0.37643887  0.21121246  0.15090919    -0.16600
C74         C  0.37782435  0.14728459  0.13222300    -0.16600
C75         C  0.31108927  0.14323539  0.13297712    -0.16200
C76         C  0.37437535  0.20923708  0.13233621    -0.16500
C77         C  0.02462023  0.50382704  0.20662236     0.46200
H78         H  0.02411219  0.50315618  0.19158087    -0.02800
C79         C  0.02626780  0.50489515  0.24178107     0.46300
H80         H  0.02745034  0.50629243  0.25680555    -0.02800
C81         C  0.06659356  0.02718050  0.21614443    -0.16500
C82         C  0.99858565  0.02104881  0.21560357    -0.16200
C83         C  0.00491133  0.46076541  0.21493930    -0.16600
C84         C  0.06636541  0.02723588  0.23468013    -0.16600
C85         C  0.99870790  0.02122249  0.23419301    -0.16200
C86         C  0.00619237  0.46170226  0.23357939    -0.16500
O87         O  0.27538525  0.07487930  0.36438869    -0.80100
O88         O  0.37757093  0.21565910  0.31381538    -0.64800
O89         O  0.34874913  0.14022341  0.35202888    -1.11400
C90         C  0.30796073  0.22614149  0.38075435     1.06800
O91         O  0.41086927  0.26729441  0.33334635    -0.78000
O92         O  0.40864157  0.25764183  0.36968367    -0.65600
Ni93       Ni  0.31717521  0.08286105  0.34742847     1.34900
C94         C  0.40540833  0.23053002  0.38050213     0.85500
O95         O  0.38523885  0.14944320  0.31818509    -0.78600
O96         O  0.35696085  0.08693025  0.33037165    -0.88800
C97         C  0.40217608  0.25328835  0.31714970     0.85100
O98         O  0.28191557  0.08151941  0.32827227    -0.67000
O99         O  0.33409817  0.25422489  0.37064802    -0.86300
C100        C  0.28237008  0.10907447  0.31862142     0.85900
C101        C  0.38047812  0.11370319  0.31914362     1.07500
H102        H  0.31398783  0.19660399  0.34129767     0.39300
O103        O  0.33932843  0.20116103  0.34701540    -1.09000
O104        O  0.37488216  0.19425888  0.38028528    -0.65600
Ni105      Ni  0.32424432  0.16410710  0.36643029     1.26300
O106        O  0.31076013  0.14626757  0.31963768    -0.65900
O107        O  0.30008872  0.18933408  0.38020925    -0.78200
C108        C  0.28351978  0.08715637  0.38077484     0.85300
O109        O  0.30845086  0.12429826  0.38468097    -0.65300
Ni110      Ni  0.37148038  0.25830970  0.35198359     1.27400
Ni111      Ni  0.36276357  0.17640434  0.33236518     1.26100
H112        H  0.37430606  0.14557406  0.35781554     0.39800
O113        O  0.05110004  0.11127359  0.00369998    -0.80100
O114        O  0.48768549  0.44648069  0.04855002    -0.64800
O115        O  0.04048642  0.03624462  0.01521768    -1.11400
C116        C  0.42162802  0.46200341  0.97840477     1.06800
O117        O  0.43994742  0.39742017  0.03039348    -0.78000
O118        O  0.48613492  0.42453580  0.99984157    -0.65600
Ni119      Ni  0.06534071  0.09095758  0.02469253     1.34900
C120        C  0.00555770  0.44806301  0.98777467     0.85500
O121        O  0.06651349  0.01296120  0.04560715    -0.78600
O122        O  0.08500836  0.07884970  0.04674199    -0.88800
C123        C  0.45907660  0.41000502  0.04548742     0.85100
O124        O  0.01604997  0.08142758  0.03583648    -0.67000
O125        O  0.42471952  0.43238742  0.98418886    -0.86300
C126        C  0.49811814  0.05631741  0.04794723     0.85900
C127        C  0.08843639  0.04895999  0.05211261     1.07500
H128        H  0.44538402  0.47930677  0.02396569     0.39300
O129        O  0.46459190  0.47422226  0.01749147    -1.09000
O130        O  0.00723111  0.48213359  0.98539572    -0.65600
Ni131      Ni  0.49273223  0.01921093  0.00052078     1.26300
O132        O  0.49954064  0.02363332  0.04924915    -0.65900
O133        O  0.44265220  0.49760285  0.98537417    -0.78200
C134        C  0.03918279  0.09774555  0.98761572     0.85300
O135        O  0.01967090  0.06008751  0.98353545    -0.65300
Ni136      Ni  0.43585142  0.41932435  0.00790358     1.27400
Ni137      Ni  0.01286734  0.48833216  0.03220334     1.26100
H138        H  0.06118839  0.03344108  0.00875080     0.39800
C139        C  0.19858551  0.06071740  0.28811548     0.30500
C140        C  0.16607746  0.02773363  0.27859652    -0.35800
C141        C  0.14461035  0.03772891  0.26599274     0.16500
C142        C  0.15421898  0.07738993  0.26300516     0.22300
C143        C  0.18697337  0.11041832  0.27242104    -0.33900
C144        C  0.20860723  0.10043892  0.28497078     0.16400
O145        O  0.22269750  0.05840711  0.30056626    -0.25900
C146        C  0.24865521  0.09716036  0.30535991     0.06200
C147        C  0.24139718  0.12466954  0.29610790    -0.30800
O148        O  0.12877731  0.07944180  0.25118142    -0.22700
C149        C  0.10308426  0.04066001  0.24639830    -0.02600
C150        C  0.11127719  0.01338991  0.25519993    -0.17100
H151        H  0.15789044  0.99646883  0.28095283     0.20900
H152        H  0.19478620  0.14163497  0.27024187     0.19300
H153        H  0.25797318  0.15765927  0.29738228     0.19200
H154        H  0.09919532  0.48071365  0.25128868     0.15100
C155        C  0.45773509  0.36780072  0.25624735     0.30500
C156        C  0.42882305  0.32647455  0.25937182    -0.35800
C157        C  0.43114552  0.31208231  0.27658498     0.16500
C158        C  0.45978793  0.33681830  0.28971596     0.22300
C159        C  0.48899808  0.37754201  0.28645412    -0.33900
C160        C  0.48667966  0.39173240  0.26938517     0.16400
O161        O  0.46016157  0.38870274  0.24163853    -0.25900
C162        C  0.49133499  0.42631371  0.24556357     0.06200
C163        C  0.50879951  0.42961673  0.26264877    -0.30800
O164        O  0.45423236  0.31877978  0.30535818    -0.22700
C165        C  0.42191281  0.28168490  0.30230435    -0.02600
C166        C  0.40639412  0.27548415  0.28457489    -0.17100
H167        H  0.40542426  0.30733259  0.24935487     0.20900
H168        H  0.51108300  0.39728767  0.29677699     0.19300
H169        H  0.53400519  0.45618541  0.26938000     0.19200
H170        H  0.37922202  0.24897932  0.27883795     0.15100
C171        C  0.44751706  0.04018690  0.26908459     0.30500
C172        C  0.42712360  0.03232941  0.28556201    -0.35800
C173        C  0.42019312  0.06292710  0.29218996     0.16500
C174        C  0.43235766  0.09890572  0.28328320     0.22300
C175        C  0.45292107  0.10680821  0.26673240    -0.33900
C176        C  0.45986034  0.07604275  0.26004710     0.16400
O177        O  0.45813379  0.01617341  0.26079349    -0.25900
C178        C  0.47709835  0.03644547  0.24607393     0.06200
C179        C  0.47950540  0.07417556  0.24495495    -0.30800
O180        O  0.42138979  0.12262546  0.29182408    -0.22700
C181        C  0.40203226  0.10137405  0.30634206    -0.02600
C182        C  0.40059149  0.06413754  0.30725738    -0.17100
H183        H  0.41736724  0.00428830  0.29273047     0.20900
H184        H  0.46267887  0.13483156  0.25955971     0.19300
H185        H  0.49489821  0.09742869  0.23492665     0.19200
H186        H  0.38597297  0.04072164  0.31729237     0.15100
C187        C  0.44645832  0.35050031  0.08342496     0.30500
C188        C  0.45628121  0.33968065  0.10010855    -0.35800
C189        C  0.42717701  0.30085062  0.10634796     0.16500
C190        C  0.39130799  0.27474351  0.09672694     0.22300
C191        C  0.38176502  0.28531069  0.08012003    -0.33900
C192        C  0.41051547  0.32384807  0.07398400     0.16400
O193        O  0.46869833  0.38515119  0.07488140    -0.25900
C194        C  0.44647862  0.38003681  0.05984434     0.06200
C195        C  0.41011093  0.34253260  0.05863109    -0.30800
O196        O  0.36844885  0.24004524  0.10480980    -0.22700
C197        C  0.38937734  0.24375035  0.11998228    -0.02600
C198        C  0.42658096  0.28078409  0.12164311    -0.17100
H199        H  0.48440018  0.36001749  0.10767171     0.20900
H200        H  0.35375596  0.26485037  0.07250845     0.19300
H201        H  0.38674971  0.33070657  0.04791105     0.19200
H202        H  0.44995253  0.29102333  0.13231017     0.15100
C203        C  0.17097249  0.06407787  0.08017644     0.30500
C204        C  0.20757697  0.06437491  0.08468563    -0.35800
C205        C  0.22980614  0.08846758  0.09986291     0.16500
C206        C  0.21660060  0.11019265  0.11011661     0.22300
C207        C  0.18023500  0.11016238  0.10553354    -0.33900
C208        C  0.15841124  0.08666623  0.09019121     0.16400
O209        O  0.14671758  0.04579508  0.06587891    -0.25900
C210        C  0.11860049  0.05722391  0.06671742     0.06200
C211        C  0.12443941  0.08272789  0.08148999    -0.30800
O212        O  0.24269928  0.13147577  0.12345226    -0.22700
C213        C  0.27311702  0.12348295  0.12160691    -0.02600
C214        C  0.26697236  0.09720223  0.10711699    -0.17100
H215        H  0.21858487  0.04796599  0.07662142     0.20900
H216        H  0.17028021  0.12813613  0.11309442     0.19300
H217        H  0.10702853  0.09743892  0.08489262     0.19200
H218        H  0.28731136  0.08664914  0.10249521     0.15100
C219        C  0.41861926  0.09613147  0.10741316     0.30500
C220        C  0.42860855  0.06597509  0.10304958    -0.35800
C221        C  0.44651918  0.06936676  0.08602132     0.16500
C222        C  0.45409416  0.10038193  0.07431231     0.22300
C223        C  0.44432283  0.13028356  0.07867660    -0.33900
C224        C  0.42653684  0.12684651  0.09550622     0.16400
O225        O  0.40101162  0.09904213  0.12234264    -0.25900
C226        C  0.39810675  0.13222960  0.11981101     0.06200
C227        C  0.41358531  0.15054648  0.10336505    -0.30800
O228        O  0.47187377  0.09880438  0.05937921    -0.22700
C229        C  0.47572066  0.06620851  0.06128802    -0.02600
C230        C  0.46047951  0.04647621  0.07761866    -0.17100
H231        H  0.42284990  0.04171810  0.11222127     0.20900
H232        H  0.45031721  0.15470770  0.06956093     0.19300
H233        H  0.41493871  0.17749814  0.09788559     0.19200
H234        H  0.46094762  0.02014258  0.08275822     0.15100
C235        C  0.43891924  0.06067818  0.19694085     0.30500
C236        C  0.40853533  0.07183725  0.19682606    -0.35800
C237        C  0.40934627  0.09556345  0.18227539     0.16500
C238        C  0.43788069  0.10724708  0.16869493     0.22300
C239        C  0.46834929  0.09614953  0.16882642    -0.33900
C240        C  0.46762375  0.07251082  0.18342749     0.16400
O241        O  0.44479006  0.03993904  0.20961864    -0.25900
C242        C  0.47783658  0.03858850  0.20426579     0.06200
C243        C  0.99334932  0.05744092  0.18805091    -0.30800
O244        O  0.43203918  0.12819878  0.15609397    -0.22700
C245        C  0.39935605  0.12997639  0.16167134    -0.02600
C246        C  0.38423378  0.11056719  0.17798919    -0.17100
H247        H  0.38600118  0.06285044  0.20740673     0.20900
H248        H  0.99096626  0.10451388  0.15839304     0.19300
H249        H  0.02021293  0.06165590  0.18089658     0.19200
H250        H  0.35751500  0.10654339  0.18520904     0.15100
C251        C  0.23064573  0.11692082  0.18152942     0.30500
C252        C  0.20839053  0.12273136  0.19524189    -0.35800
C253        C  0.16765788  0.09055778  0.19752487     0.16500
C254        C  0.14996051  0.05512323  0.18707936     0.22300
C255        C  0.17216437  0.04938144  0.17337449    -0.33900
C256        C  0.21281728  0.08146349  0.17109796     0.16400
O257        O  0.26870026  0.14339049  0.17659211    -0.25900
C258        C  0.27505866  0.12466027  0.16272339     0.06200
C259        C  0.24150357  0.08588549  0.15889509    -0.30800
O260        O  0.11176014  0.02869795  0.19178589    -0.22700
C261        C  0.10497178  0.04727372  0.20555278    -0.02600
C262        C  0.13847458  0.08610187  0.20950717    -0.17100
H263        H  0.22180073  0.15039990  0.20350418     0.20900
H264        H  0.15866687  0.02183041  0.16503386     0.19300
H265        H  0.23829344  0.06448045  0.14829870     0.19200
H266        H  0.14106638  0.10792014  0.21973487     0.15100
C267        C  0.43331444  0.29745317  0.17948505     0.30500
C268        C  0.46377589  0.32228950  0.19243310    -0.35800
C269        C  0.47038175  0.36185883  0.19498583     0.16500
C270        C  0.44849154  0.37615914  0.18552918     0.22300
C271        C  0.41812882  0.35137396  0.17249653    -0.33900
C272        C  0.41153835  0.31175895  0.16993420     0.16400
O273        O  0.42281948  0.25976531  0.17462252    -0.25900
C274        C  0.39417678  0.24987168  0.16165957     0.06200
C275        C  0.38556416  0.28088856  0.15834793    -0.30800
O276        O  0.45850614  0.41355847  0.19072471    -0.22700
C277        C  0.48695162  0.42314960  0.20377930    -0.02600
C278        C  0.99621209  0.39151554  0.20703153    -0.17100
H279        H  0.97957028  0.30982154  0.20096425     0.20900
H280        H  0.40066543  0.36210342  0.16497048     0.19300
H281        H  0.36420406  0.28106041  0.14841377     0.19200
H282        H  0.01697266  0.39084424  0.21714473     0.15100
C283        C  0.28698864  0.39268077  0.92350256     0.30500
C284        C  0.32018847  0.38831845  0.92931335    -0.35800
C285        C  0.34800114  0.41806134  0.94172935     0.16500
C286        C  0.34406679  0.45043568  0.94780669     0.22300
C287        C  0.31103446  0.45505413  0.94178152    -0.33900
C288        C  0.28262035  0.42474661  0.92966399     0.16400
O289        O  0.25620463  0.36716778  0.91269489    -0.25900
C290        C  0.23165527  0.38291033  0.91209772     0.06200
C291        C  0.24631191  0.41859242  0.92238179    -0.30800
O292        O  0.37137704  0.47228641  0.96076258    -0.22700
C293        C  0.39281057  0.45341761  0.96304435    -0.02600
C294        C  0.37971037  0.41970461  0.95147523    -0.17100
H295        H  0.32311753  0.36253434  0.92507168     0.20900
H296        H  0.30667690  0.47942885  0.94685842     0.19300
H297        H  0.23224424  0.43718823  0.92414625     0.19200
H298        H  0.39016018  0.39785053  0.95121931     0.15100
C299        C  0.08882275  0.23351061  0.93752382     0.30500
C300        C  0.07722094  0.22383344  0.95549762    -0.35800
C301        C  0.06569693  0.18416084  0.96041924     0.16500
C302        C  0.06494780  0.15557962  0.94844380     0.22300
C303        C  0.07707736  0.16548740  0.93042502    -0.33900
C304        C  0.08925801  0.20558817  0.92555812     0.16400
O305        O  0.10182262  0.26926982  0.93031955    -0.25900
C306        C  0.11086532  0.26466070  0.91344753     0.06200
C307        C  0.10440740  0.22569533  0.90980734    -0.30800
O308        O  0.05404325  0.12057609  0.95623426    -0.22700
C309        C  0.04834073  0.12732501  0.97338759    -0.02600
C310        C  0.05521350  0.16630221  0.97676499    -0.17100
H311        H  0.07794910  0.24599644  0.96507514     0.20900
H312        H  0.07774349  0.14379309  0.92100337     0.19300
H313        H  0.11122501  0.21408154  0.89771154     0.19200
H314        H  0.05358331  0.17973621  0.98951411     0.15100
C315        C  0.07673087  0.37939042  0.93741561     0.30500
C316        C  0.05302423  0.36875011  0.95304287    -0.35800
C317        C  0.04712371  0.39920606  0.96070125     0.16500
C318        C  0.06331725  0.43756306  0.95348467     0.22300
C319        C  0.08733142  0.44832740  0.93784767    -0.33900
C320        C  0.09320004  0.41771704  0.93013323     0.16400
O321        O  0.08623326  0.35555458  0.92822635    -0.25900
C322        C  0.10859788  0.37850677  0.91468713     0.06200
C323        C  0.11442839  0.41774100  0.91524684    -0.30800
O324        O  0.05210362  0.46053261  0.96243923    -0.22700
C325        C  0.02869876  0.43655279  0.97557984    -0.02600
C326        C  0.02467923  0.39812633  0.97518601    -0.17100
H327        H  0.03980877  0.33866443  0.95874684     0.20900
H328        H  0.10005309  0.47821360  0.93199145     0.19300
H329        H  0.13239378  0.44273039  0.90627789     0.19200
H330        H  0.00635737  0.37253777  0.98381961     0.15100
C331        C  0.07179185  0.40950726  0.86680721     0.30500
C332        C  0.04328932  0.42311219  0.86732936    -0.35800
C333        C  0.04205009  0.44427616  0.85212871     0.16500
C334        C  0.06719003  0.45153138  0.83748676     0.22300
C335        C  0.09591245  0.43825782  0.83703271    -0.33900
C336        C  0.09700063  0.41694816  0.85217875     0.16400
O337        O  0.07809214  0.38909389  0.87950680    -0.25900
C338        C  0.10782401  0.38346453  0.87299295     0.06200
C339        C  0.12057551  0.39993990  0.85595162    -0.30800
O340        O  0.05922352  0.46965311  0.82430043    -0.22700
C341        C  0.02849495  0.47405783  0.83046828    -0.02600
C342        C  0.01684716  0.45925961  0.84784413    -0.17100
H343        H  0.02312709  0.41712061  0.87867650     0.20900
H344        H  0.11545522  0.44349119  0.82551619     0.19300
H345        H  0.14456750  0.40043573  0.84777108     0.19200
H346        H  0.49275798  0.45786525  0.85582380     0.15100
C347        C  0.03402962  0.13509974  0.84678322     0.30500
C348        C  0.02777416  0.15925062  0.85944211    -0.35800
C349        C  0.06114818  0.19910249  0.86247211     0.16500
C350        C  0.09844697  0.21401312  0.85390582     0.22300
C351        C  0.10485964  0.18970587  0.84139378    -0.33900
C352        C  0.07130098  0.15003096  0.83819191     0.16400
O353        O  0.50483288  0.09976935  0.84029920    -0.25900
C354        C  0.02574848  0.08904705  0.82849082     0.06200
C355        C  0.06661561  0.11999766  0.82643496    -0.30800
O356        O  0.12583224  0.25175089  0.85918843    -0.22700
C357        C  0.10587719  0.26110483  0.87135492    -0.02600
C358        C  0.06529211  0.22971961  0.87371886    -0.17100
H359        H  0.49661243  0.15237484  0.86364261     0.20900
H360        H  0.13385925  0.20106490  0.83450239     0.19300
H361        H  0.08905034  0.12077518  0.81711450     0.19200
H362        H  0.04288500  0.22895798  0.88304902     0.15100
C363        C  0.29292055  0.42330318  0.86552411     0.30500
C364        C  0.33613671  0.44799965  0.86690247    -0.35800
C365        C  0.35750992  0.45415967  0.85072998     0.16500
C366        C  0.33755338  0.43753236  0.83437812     0.22300
C367        C  0.29429972  0.41326225  0.83296997    -0.33900
C368        C  0.27295334  0.40670587  0.84917038     0.16400
O369        O  0.26728937  0.41144713  0.87907920    -0.25900
C370        C  0.23029208  0.38660843  0.87147258     0.06200
C371        C  0.23191084  0.38288393  0.85276739    -0.30800
O372        O  0.36349872  0.44619636  0.82107552    -0.22700
C373        C  0.40075018  0.46871752  0.82886265    -0.02600
C374        C  0.39886788  0.47465038  0.84740011    -0.17100
H375        H  0.35199497  0.46052419  0.87976617     0.20900
H376        H  0.27852789  0.39958884  0.82021055     0.19300
H377        H  0.20698723  0.36422220  0.84326652     0.19200
H378        H  0.42528164  0.97515860  0.85763502     0.15100
C379        C  0.35083242  0.43110144  0.77160330     0.29600
C380        C  0.31585591  0.39780445  0.76329041    -0.35800
C381        C  0.29754674  0.40732210  0.74887127     0.16500
C382        C  0.31273564  0.44676462  0.74308834     0.22300
C383        C  0.34744498  0.47979369  0.75136070    -0.33900
C384        C  0.36551112  0.47036745  0.76571025     0.16400
O385        O  0.37379108  0.42970245  0.78498800    -0.25900
C386        C  0.40299667  0.46869078  0.78764095     0.06200
C387        C  0.39937957  0.49510300  0.77602497    -0.30800
O388        O  0.29053198  0.44914468  0.72976827    -0.22700
C389        C  0.26054327  0.41076571  0.72687251    -0.02600
C390        C  0.26330646  0.38327387  0.73832426    -0.17100
H391        H  0.30380762  0.36680646  0.76772473     0.20900
H392        H  0.35948328  0.51080288  0.74694300     0.19300
H393        H  0.41760596  0.02954779  0.77436085     0.19200
H394        H  0.24243919  0.35064617  0.73911657     0.15100
C395        C  0.05000404  0.17203346  0.74132191     0.30500
C396        C  0.02571680  0.13017049  0.74386140    -0.35800
C397        C  0.02417343  0.11733110  0.76156056     0.16500
C398        C  0.04428509  0.14348491  0.77602229     0.22300
C399        C  0.06856744  0.18590196  0.77352620    -0.33900
C400        C  0.07077073  0.19895057  0.75558118     0.16400
O401        O  0.05792251  0.18977517  0.72558410    -0.25900
C402        C  0.08418267  0.22874761  0.72959718     0.06200
C403        C  0.09337854  0.23654311  0.74808180    -0.30800
O404        O  0.03930264  0.12369189  0.79126782    -0.22700
C405        C  0.01619044  0.08438478  0.78632999    -0.02600
C406        C  0.50233495  0.08110872  0.76940324    -0.17100
H407        H  0.50188522  0.11194436  0.73489299     0.20900
H408        H  0.08553667  0.20695713  0.78461245     0.19300
H409        H  0.11477605  0.26522770  0.75483732     0.19200
H410        H  0.48110763  0.05397355  0.76169058     0.15100
C411        C  0.09213728  0.44672528  0.74525205     0.30500
C412        C  0.08628567  0.47877316  0.75059432    -0.35800
C413        C  0.06392622  0.47273539  0.76634829     0.16500
C414        C  0.04827560  0.43762797  0.77632221     0.22300
C415        C  0.05421565  0.40533806  0.77095311    -0.33900
C416        C  0.07658040  0.41131706  0.75501722     0.16400
O417        O  0.11228992  0.44634772  0.73092759    -0.25900
C418        C  0.10966417  0.41020296  0.73133426     0.06200
C419        C  0.08765741  0.38683475  0.74598758    -0.30800
O420        O  0.02679899  0.43828945  0.79024377    -0.22700
C421        C  0.02914323  0.47436806  0.78903142    -0.02600
C422        C  0.05176261  0.49689992  0.77444812    -0.17100
H423        H  0.09804084  0.50640020  0.74287938     0.20900
H424        H  0.04187663  0.37744371  0.77850285     0.19300
H425        H  0.08138402  0.35669735  0.74957326     0.19200
H426        H  0.05733185  0.52640060  0.77015394     0.15100
C427        C  0.27104111  0.27473601  0.40883321     0.30500
C428        C  0.26751613  0.30760619  0.41521960    -0.35800
C429        C  0.24365589  0.30040882  0.43061147     0.16500
C430        C  0.22457554  0.26348691  0.43930022     0.22300
C431        C  0.22820471  0.23044998  0.43291051    -0.33900
C432        C  0.25196713  0.23758877  0.41734530     0.16400
O433        O  0.29228113  0.27514691  0.39472229    -0.25900
C434        C  0.28675539  0.23774609  0.39403803     0.06200
C435        C  0.26179514  0.21287499  0.40774266    -0.30800
O436        O  0.20259728  0.26348336  0.45315408    -0.22700
C437        C  0.20798786  0.30094742  0.45321586    -0.02600
C438        C  0.23310781  0.32506763  0.43950768    -0.17100
H439        H  0.28213809  0.33673120  0.40855570     0.20900
H440        H  0.21326226  0.20121358  0.43947673     0.19300
H441        H  0.25309353  0.18161197  0.41047014     0.19200
H442        H  0.24152824  0.35606721  0.43633839     0.15100
C443        C  0.02861955  0.26492244  0.43958181     0.30500
C444        C  0.49127577  0.23213922  0.43246012    -0.35800
C445        C  0.47351869  0.24071768  0.41751512     0.16500
C446        C  0.99118901  0.27873692  0.41016189     0.22300
C447        C  0.02839547  0.31136154  0.41700173    -0.33900
C448        C  0.04622699  0.30280373  0.43177139     0.16400
O449        O  0.05199721  0.26374746  0.45285580    -0.25900
C450        C  0.08487974  0.30137747  0.45333515     0.06200
C451        C  0.08275693  0.32679627  0.44059062    -0.30800
O452        O  0.46974806  0.28032051  0.39609741    -0.22700
C453        C  0.43823218  0.24226534  0.39431153    -0.02600
C454        C  0.43886698  0.21622361  0.40728725    -0.17100
H455        H  0.47765142  0.20185782  0.43798437     0.20900
H456        H  0.04297378  0.34116622  0.41094275     0.19300
H457        H  0.10519392  0.35833972  0.43803087     0.19200
H458        H  0.41690707  0.18407614  0.40896632     0.15100
C459        C  0.20535755  0.44550062  0.43047984     0.30500
C460        C  0.19821409  0.45611597  0.41333728    -0.35800
C461        C  0.22702689  0.00030902  0.40819795     0.16500
C462        C  0.25539956  0.02987558  0.42007886     0.22300
C463        C  0.26629979  0.51251508  0.43622982    -0.33900
C464        C  0.23830220  0.47256423  0.44139478     0.16400
O465        O  0.18332652  0.40974325  0.43782493    -0.25900
C466        C  0.20195867  0.41375823  0.45373632     0.06200
C467        C  0.23697645  0.45205103  0.45659016    -0.30800
O468        O  0.27809029  0.06522522  0.41220914    -0.22700
C469        C  0.26395577  0.05779307  0.39515236    -0.02600
C470        C  0.23219599  0.01799723  0.39190300    -0.17100
H471        H  0.17290701  0.43468319  0.40457845     0.20900
H472        H  0.29230983  0.53348625  0.44478311     0.19300
H473        H  0.25871018  0.46295832  0.46792476     0.19200
H474        H  0.21656201  0.00373156  0.37918570     0.15100
C475        C  0.27355876  0.24702396  0.59218701     0.30500
C476        C  0.26677112  0.27919479  0.59683295    -0.35800
C477        C  0.24455073  0.27413522  0.61275706     0.16500
C478        C  0.23014019  0.23977838  0.62318543     0.22300
C479        C  0.23701601  0.20801543  0.61860200    -0.33900
C480        C  0.25896855  0.21302715  0.60282995     0.16400
O481        O  0.29375755  0.24489220  0.57806760    -0.25900
C482        C  0.29140699  0.20885282  0.57977055     0.06200
C483        C  0.27033377  0.18801933  0.59496537    -0.30800
O484        O  0.20952657  0.24054392  0.63724429    -0.22700
C485        C  0.21066001  0.27589848  0.63603822    -0.02600
C486        C  0.23217459  0.29839332  0.62109557    -0.17100
H487        H  0.27789209  0.30607130  0.58864378     0.20900
H488        H  0.22580594  0.18107808  0.62676001     0.19300
H489        H  0.26438260  0.15861817  0.59959350     0.19200
H490        H  0.23725592  0.32775615  0.61687901     0.15100
C491        C  0.50250944  0.23694453  0.62713114     0.30500
C492        C  0.46645475  0.20350090  0.61995670    -0.35800
C493        C  0.44876690  0.21121075  0.60490714     0.16500
C494        C  0.46508636  0.24920141  0.59730170     0.22300
C495        C  0.00009314  0.28444024  0.60484256    -0.33900
C496        C  0.01870562  0.27647440  0.61967744     0.16400
O497        O  0.02614306  0.23655646  0.63976497    -0.25900
C498        C  0.05737125  0.27475015  0.64140686     0.06200
C499        C  0.05434516  0.30113345  0.62933708    -0.30800
O500        O  0.44297290  0.24886752  0.58313917    -0.22700
C501        C  0.41235141  0.21011160  0.58186586    -0.02600
C502        C  0.41450788  0.18555038  0.59502791    -0.17100
H503        H  0.45344430  0.17332591  0.62554658     0.20900
H504        H  0.01291062  0.31464923  0.59931663     0.19300
H505        H  0.07608218  0.33325826  0.62745681     0.19200
H506        H  0.39371839  0.15335908  0.59706070     0.15100
C507        C  0.29718652  0.06233625  0.60170962     0.30500
C508        C  0.30375627  0.05264611  0.61914234    -0.35800
C509        C  0.27702650  0.01256068  0.62429595     0.16500
C510        C  0.24314409  0.48549811  0.61275244     0.22300
C511        C  0.23979296  0.99343912  0.59539893    -0.33900
C512        C  0.26637395  0.03391800  0.59030138     0.16400
O513        O  0.31714343  0.09868076  0.59472711    -0.25900
C514        C  0.29945940  0.09396666  0.57852588     0.06200
C515        C  0.26717044  0.05421668  0.57503386    -0.30800
O516        O  0.21961146  0.45063690  0.62091050    -0.22700
C517        C  0.23578642  0.45733359  0.63762610    -0.02600
C518        C  0.26975877  0.49624608  0.64032680    -0.17100
H519        H  0.32713117  0.07526679  0.62828843     0.20900
H520        H  0.21275909  0.47355239  0.58615693     0.19300
H521        H  0.24632429  0.04232147  0.56340740     0.19200
H522        H  0.28768037  0.50984034  0.65267116     0.15100
C523        C  0.24398851  0.27113760  0.50097296     0.30500
C524        C  0.27228980  0.25729047  0.50032615    -0.35800
C525        C  0.27650532  0.23959060  0.51615902     0.16500
C526        C  0.25420022  0.23564726  0.53146599     0.22300
C527        C  0.22591793  0.24947453  0.53211472    -0.33900
C528        C  0.22188808  0.26737906  0.51633331     0.16400
O529        O  0.23509943  0.28846858  0.48772616    -0.25900
C530        C  0.20689262  0.29595445  0.49460993     0.06200
C531        C  0.19763037  0.28362075  0.51244989    -0.30800
O532        O  0.26342173  0.21885349  0.54480940    -0.22700
C533        C  0.29238110  0.21223802  0.53815999    -0.02600
C534        C  0.30151987  0.22426335  0.52026057    -0.17100
H535        H  0.28989135  0.26029027  0.48834942     0.20900
H536        H  0.20852478  0.24672315  0.54413462     0.19300
H537        H  0.17559435  0.28540832  0.52116629     0.19200
H538        H  0.32402624  0.22301839  0.51166466     0.15100
C539        C  0.24592731  0.46673851  0.51247510     0.30500
C540        C  0.27895660  0.99473062  0.52369618    -0.35800
C541        C  0.28310467  0.03311239  0.52715599     0.16500
C542        C  0.25565119  0.04392218  0.52031596     0.22300
C543        C  0.22162909  0.01659158  0.50935476    -0.33900
C544        C  0.22261237  0.48007318  0.50349982     0.16400
O545        O  0.23535596  0.42887971  0.50776254    -0.25900
C546        C  0.20492176  0.41783768  0.49554759     0.06200
C547        C  0.19527642  0.44829274  0.49262210    -0.30800
O548        O  0.26425579  0.08058805  0.52599140    -0.22700
C549        C  0.29760333  0.09342626  0.53664997    -0.02600
C550        C  0.31095734  0.06531723  0.53772397    -0.17100
H551        H  0.30077667  0.98668888  0.52910636     0.20900
H552        H  0.19987113  0.02467126  0.50390487     0.19300
H553        H  0.17288533  0.44778930  0.48307855     0.19200
H554        H  0.33602028  0.06740316  0.54598114     0.15100
C555        C  0.46077175  0.24627295  0.52053064     0.30500
C556        C  0.48079273  0.26930659  0.50541529    -0.35800
C557        C  0.02208358  0.27984070  0.50328803     0.16500
C558        C  0.04240002  0.26844145  0.51545616     0.22300
C559        C  0.02249055  0.24600767  0.53079961    -0.33900
C560        C  0.48101522  0.23481945  0.53273140     0.16400
O561        O  0.42226974  0.23357512  0.52494820    -0.25900
C562        C  0.41784142  0.21417061  0.54033013     0.06200
C563        C  0.45326650  0.21350345  0.54569090    -0.30800
O564        O  0.08046566  0.28006542  0.51056544    -0.22700
C565        C  0.08428000  0.29882186  0.49499350    -0.02600
C566        C  0.04916253  0.30034172  0.49008848    -0.17100
H567        H  0.46527211  0.27845057  0.49573715     0.20900
H568        H  0.03792653  0.23680014  0.54049459     0.19300
H569        H  0.45798406  0.19919346  0.55732341     0.19200
H570        H  0.04392086  0.31431340  0.47847567     0.15100
C571        C  0.33720854  0.67526910  0.53955426     0.46200
H572        H  0.33842836  0.67573761  0.52453689    -0.02800
C573        C  0.33420246  0.67325766  0.57462069     0.46300
H574        H  0.33286957  0.67277012  0.58964548    -0.02800
C575        C  0.38043580  0.69850712  0.54909837    -0.16500
C576        C  0.31269457  0.69428658  0.54761389    -0.16200
C577        C  0.31656746  0.63137584  0.54715554    -0.16600
C578        C  0.37837721  0.69716409  0.56770976    -0.16600
C579        C  0.31110602  0.69275742  0.56614043    -0.16200
C580        C  0.31537937  0.63088186  0.56576931    -0.16500
C581        C  0.16952496  0.84118632  0.45636972     0.46200
H582        H  0.17100027  0.84231923  0.44135391    -0.02800
C583        C  0.16577717  0.83716805  0.49139419     0.46300
H584        H  0.16428215  0.83586060  0.50639653    -0.02800
C585        C  0.19199542  0.82085459  0.46452843    -0.16500
C586        C  0.18844850  0.88301498  0.46570625    -0.16200
C587        C  0.12531908  0.81734473  0.46311921    -0.16600
C588        C  0.18973353  0.81789869  0.48300193    -0.16600
C589        C  0.18714629  0.88143194  0.48428379    -0.16200
C590        C  0.12277592  0.81524360  0.48168154    -0.16500
O591        O  0.09153789  0.74327021  0.69834261    -0.80100
O592        O  0.19444304  0.88986399  0.64857781    -0.64800
O593        O  0.16372492  0.81037234  0.68516205    -1.11400
C594        C  0.12322020  0.89505368  0.71537961     1.06800
O595        O  0.22780309  0.93957588  0.66888517    -0.78000
O596        O  0.22363477  0.92783404  0.70496916    -0.65600
Ni597      Ni  0.13019979  0.75361344  0.67929702     1.34900
C598        C  0.22153296  0.89982941  0.71487412     0.85500
O599        O  0.20188902  0.82387913  0.65141242    -0.78600
O600        O  0.16635244  0.75839684  0.66003379    -0.88800
C601        C  0.21947089  0.92699169  0.65249977     0.85100
O602        O  0.09261540  0.75687872  0.66272489    -0.67000
O603        O  0.14864637  0.92360883  0.70528917    -0.86300
C604        C  0.09594836  0.78478227  0.65240710     0.85900
C605        C  0.19285868  0.78673523  0.65018015     1.07500
H606        H  0.12969555  0.86780783  0.67589430     0.39300
O607        O  0.15511327  0.87221934  0.68146648    -1.09000
O608        O  0.19174387  0.86316206  0.71398070    -0.65600
Ni609      Ni  0.14036595  0.83405710  0.70044795     1.26300
O610        O  0.12750660  0.82043360  0.65246742    -0.65900
O611        O  0.11695302  0.85883030  0.71499370    -0.78200
C612        C  0.10004315  0.75631061  0.71464140     0.85300
O613        O  0.12494351  0.79356894  0.71838354    -0.65300
Ni614      Ni  0.18722458  0.92919913  0.68707609     1.27400
Ni615      Ni  0.17872449  0.84882935  0.66620225     1.26100
H616        H  0.18892685  0.81424174  0.69074446     0.39800
C617        C  0.48211380  0.50477864  0.79167399     0.46200
H618        H  0.48060110  0.50071795  0.77679129    -0.02800
C619        C  0.48364015  0.50983996  0.82673845     0.46300
H620        H  0.48496641  0.51257559  0.84172285    -0.02800
C621        C  0.50343223  0.98638170  0.79944505    -0.16500
C622        C  0.50232856  0.54893500  0.79880728    -0.16200
C623        C  0.43796013  0.98526660  0.79966602    -0.16600
C624        C  0.50455954  0.98651346  0.81798549    -0.16600
C625        C  0.50383497  0.55185339  0.81742690    -0.16200
C626        C  0.43870028  0.98552782  0.81826077    -0.16500
C627        C  0.14903075  0.84257527  0.87520593     0.46200
H628        H  0.14761678  0.84133712  0.86020856    -0.02800
C629        C  0.15085277  0.84369447  0.91038540     0.46300
H630        H  0.15232278  0.84471335  0.92543990    -0.02800
C631        C  0.12782317  0.79958032  0.88347257    -0.16500
C632        C  0.19324039  0.86501767  0.88353407    -0.16200
C633        C  0.12739674  0.86416438  0.88377710    -0.16600
C634        C  0.12921292  0.80037957  0.90210893    -0.16600
C635        C  0.19358983  0.86569713  0.90209698    -0.16200
C636        C  0.12835371  0.86418719  0.90241466    -0.16500
C637        C  0.35770268  0.66880485  0.15810866     0.46200
H638        H  0.35860449  0.66983060  0.17314680    -0.02800
C639        C  0.35505793  0.66659133  0.12291751     0.46300
H640        H  0.35333483  0.66550406  0.10787220    -0.02800
C641        C  0.38136326  0.64931535  0.14950476    -0.16500
C642        C  0.31354716  0.64380732  0.14989103    -0.16200
C643        C  0.37628917  0.71147034  0.14970049    -0.16600
C644        C  0.38032117  0.64896451  0.13087423    -0.16600
C645        C  0.31259462  0.64233272  0.13132907    -0.16200
C646        C  0.37472248  0.70985047  0.13109261    -0.16500
C647        C  0.02289615  0.00201727  0.20745016     0.46200
H648        H  0.02281826  0.00124956  0.19241191    -0.02800
C649        C  0.02334264  0.00342966  0.24260784     0.46300
H650        H  0.02399718  0.00534096  0.25760871    -0.02800
C651        C  0.06866990  0.52780910  0.21508744    -0.16500
C652        C  0.00161021  0.52397009  0.21513644    -0.16200
C653        C  0.00389373  0.95909046  0.21587223    -0.16600
C654        C  0.06903056  0.52781445  0.23362963    -0.16600
C655        C  0.00244370  0.52401122  0.23376204    -0.16200
C656        C  0.00444587  0.96017309  0.23453475    -0.16500
O657        O  0.27458230  0.57114545  0.36426718    -0.80100
O658        O  0.37616784  0.71229956  0.31409399    -0.64800
O659        O  0.34793811  0.63700932  0.35237319    -1.11400
C660        C  0.30760113  0.72297695  0.38128330     1.06800
O661        O  0.40960382  0.76358183  0.33364862    -0.78000
O662        O  0.40837270  0.75306199  0.36945471    -0.65600
Ni663      Ni  0.31707316  0.57964909  0.34757875     1.34900
C664        C  0.40507602  0.72612564  0.38035410     0.85500
O665        O  0.38480595  0.64687247  0.31864349    -0.78600
O666        O  0.35797653  0.58454372  0.33088202    -0.88800
C667        C  0.40034526  0.74995496  0.31745438     0.85100
O668        O  0.28219822  0.57802773  0.32810743    -0.67000
O669        O  0.33436618  0.75090661  0.37134322    -0.86300
C670        C  0.28211300  0.60576313  0.31877599     0.85900
C671        C  0.38136772  0.61173787  0.31975867     1.07500
H672        H  0.31299762  0.69344363  0.34170332     0.39300
O673        O  0.33825615  0.69780354  0.34743045    -1.09000
O674        O  0.37367288  0.69042664  0.38078513    -0.65600
Ni675      Ni  0.32305131  0.66053770  0.36681299     1.26300
O676        O  0.30993138  0.64306867  0.32013772    -0.65900
O677        O  0.29884688  0.68584196  0.38065660    -0.78200
C678        C  0.28258315  0.58295980  0.38071781     0.85300
O679        O  0.30694340  0.62016404  0.38484432    -0.65300
Ni680      Ni  0.37089308  0.75479835  0.35243021     1.27400
Ni681      Ni  0.36186378  0.67329873  0.33276262     1.26100
H682        H  0.37353669  0.64253627  0.35817867     0.39800
O683        O  0.05634554  0.60775407  0.00390725    -0.80100
O684        O  0.48992889  0.95080976  0.04912855    -0.64800
O685        O  0.04001159  0.53070157  0.01516513    -1.11400
C686        C  0.42192097  0.96556315  0.97949709     1.06800
O687        O  0.44429375  0.90134351  0.03053726    -0.78000
O688        O  0.48836187  0.92939129  0.99973326    -0.65600
Ni689      Ni  0.06752850  0.58522262  0.02493695     1.34900
C690        C  0.00956359  0.95388322  0.98795447     0.85500
O691        O  0.06319178  0.50434123  0.04557944    -0.78600
O692        O  0.08473185  0.57082623  0.04700707    -0.88800
C693        C  0.46247198  0.91400727  0.04578922     0.85100
O694        O  0.01895343  0.57860095  0.03581973    -0.67000
O695        O  0.42538163  0.93617590  0.98526601    -0.86300
C696        C  0.49741125  0.55313189  0.04705534     0.85900
C697        C  0.08646622  0.53993837  0.05226112     1.07500
H698        H  0.44661211  0.98244783  0.02475061     0.39300
O699        O  0.46605975  0.97788787  0.01817982    -1.09000
O700        O  0.00906438  0.98685410  0.98546689    -0.65600
Ni701      Ni  0.49215230  0.51534440  0.99981643     1.26300
O702        O  0.49806691  0.52001332  0.04853879    -0.65900
O703        O  0.44294815  0.00126416  0.98630712    -0.78200
C704        C  0.04444765  0.59516332  0.98771684     0.85300
O705        O  0.02246974  0.55759968  0.98343390    -0.65300
Ni706      Ni  0.43822101  0.92317594  0.00851012     1.27400
Ni707      Ni  0.01551442  0.99396778  0.03250577     1.26100
H708        H  0.06000052  0.52665387  0.00874957     0.39800
C709        C  0.19980555  0.55885729  0.28743746     0.30500
C710        C  0.16864063  0.52659148  0.27704901    -0.35800
C711        C  0.14717073  0.53721000  0.26471784     0.16500
C712        C  0.15537928  0.57675517  0.26284741     0.22300
C713        C  0.18677116  0.60909544  0.27314949    -0.33900
C714        C  0.20853872  0.59852419  0.28536330     0.16400
O715        O  0.22388952  0.55591626  0.29971531    -0.25900
C716        C  0.24856064  0.59424036  0.30546331     0.06200
C717        C  0.24045906  0.62206503  0.29701684    -0.30800
O718        O  0.13002017  0.57929492  0.25113057    -0.22700
C719        C  0.10592104  0.54100533  0.24522519    -0.02600
C720        C  0.11501137  0.51353927  0.25322960    -0.17100
H721        H  0.16151037  0.49538072  0.27853069     0.20900
H722        H  0.19355802  0.64023241  0.27182590     0.19300
H723        H  0.25603553  0.65485466  0.29910086     0.19200
H724        H  0.09433624  0.98037727  0.25412784     0.15100
C725        C  0.45509598  0.86611631  0.25707814     0.30500
C726        C  0.42762641  0.82420358  0.25977852    -0.35800
C727        C  0.42858854  0.81000451  0.27722198     0.16500
C728        C  0.45455862  0.83552527  0.29091619     0.22300
C729        C  0.48200685  0.87688762  0.28816373    -0.33900
C730        C  0.48118446  0.89080117  0.27087457     0.16400
O731        O  0.45921232  0.88668713  0.24214542    -0.25900
C732        C  0.48866772  0.92481658  0.24654613     0.06200
C733        C  0.50321463  0.92876113  0.26428208    -0.30800
O734        O  0.44885939  0.81715933  0.30643796    -0.22700
C735        C  0.41907392  0.77908544  0.30281801    -0.02600
C736        C  0.40528046  0.77253675  0.28479587    -0.17100
H737        H  0.40663978  0.80432047  0.24918287     0.20900
H738        H  0.50211217  0.89707597  0.29891009     0.19300
H739        H  0.52684102  0.95561415  0.27149115     0.19200
H740        H  0.38032563  0.74498571  0.27852118     0.15100
C741        C  0.45477508  0.54392576  0.27021550     0.30500
C742        C  0.43602717  0.53625492  0.28709267    -0.35800
C743        C  0.42691803  0.56546920  0.29356694     0.16500
C744        C  0.43580220  0.60010212  0.28417936     0.22300
C745        C  0.45513369  0.60804855  0.26731442    -0.33900
C746        C  0.46405456  0.57854193  0.26074629     0.16400
O747        O  0.46562338  0.52037436  0.26169478    -0.25900
C748        C  0.48175649  0.53965592  0.24640431     0.06200
C749        C  0.48222950  0.57648843  0.24517247    -0.30800
O750        O  0.42239282  0.62209004  0.29244599    -0.22700
C751        C  0.40468813  0.60105768  0.30724076    -0.02600
C752        C  0.40688312  0.56575658  0.30867122    -0.17100
H753        H  0.42846263  0.50902580  0.29452823     0.20900
H754        H  0.46200193  0.63487763  0.25971425     0.19300
H755        H  0.49519390  0.59902616  0.23469804     0.19200
H756        H  0.39404595  0.54277575  0.31897983     0.15100
C757        C  0.44690264  0.85413047  0.08387057     0.30500
C758        C  0.45445071  0.84363074  0.10108304    -0.35800
C759        C  0.42665664  0.80351025  0.10634802     0.16500
C760        C  0.39378386  0.77605704  0.09548013     0.22300
C761        C  0.38652692  0.78632441  0.07834920    -0.33900
C762        C  0.41422389  0.82600213  0.07309222     0.16400
O763        O  0.46875935  0.88965315  0.07592332    -0.25900
C764        C  0.44964583  0.88353551  0.05990287     0.06200
C765        C  0.41565850  0.84456925  0.05748294    -0.30800
O766        O  0.37159013  0.74039509  0.10291838    -0.22700
C767        C  0.39004285  0.74472150  0.11887858    -0.02600
C768        C  0.42512712  0.78317703  0.12164243    -0.17100
H769        H  0.48010900  0.86503108  0.10968758     0.20900
H770        H  0.36109758  0.76476915  0.06967639     0.19300
H771        H  0.39493938  0.83173261  0.04582741     0.19200
H772        H  0.44679459  0.79433165  0.13300128     0.15100
C773        C  0.16795256  0.55351220  0.08097307     0.30500
C774        C  0.20439871  0.55351864  0.08584648    -0.35800
C775        C  0.22869550  0.58102447  0.09990214     0.16500
C776        C  0.21733303  0.60596377  0.10876988     0.22300
C777        C  0.18114115  0.60583577  0.10396776    -0.33900
C778        C  0.15743900  0.57911429  0.08980201     0.16400
O779        O  0.14258979  0.53358633  0.06708806    -0.25900
C780        C  0.11587729  0.54699994  0.06714863     0.06200
C781        C  0.12376247  0.57521895  0.08097331    -0.30800
O782        O  0.24485479  0.63024964  0.12105172    -0.22700
C783        C  0.27460268  0.62121005  0.11998989    -0.02600
C784        C  0.26649964  0.59096497  0.10703817    -0.17100
H785        H  0.21399459  0.53473879  0.07871476     0.20900
H786        H  0.17282783  0.62636772  0.11038844     0.19300
H787        H  0.10836688  0.59238167  0.08342159     0.19200
H788        H  0.28579918  0.57845882  0.10340190     0.15100
C789        C  0.41805698  0.59558047  0.10575203     0.30500
C790        C  0.42524627  0.56368609  0.10104915    -0.35800
C791        C  0.44415960  0.56713603  0.08428479     0.16500
C792        C  0.45511725  0.59974073  0.07306643     0.22300
C793        C  0.44787765  0.63132047  0.07771675    -0.33900
C794        C  0.42918188  0.62788911  0.09435210     0.16400
O795        O  0.40034105  0.59875399  0.12058464    -0.25900
C796        C  0.40055361  0.63369628  0.11855664     0.06200
C797        C  0.41805459  0.65290071  0.10248077    -0.30800
O798        O  0.47375003  0.59800694  0.05842162    -0.22700
C799        C  0.47481535  0.56376820  0.06005826    -0.02600
C800        C  0.45672389  0.54305520  0.07588679    -0.17100
H801        H  0.41690345  0.53818422  0.10984512     0.20900
H802        H  0.45657618  0.65703873  0.06900610     0.19300
H803        H  0.42151362  0.68106142  0.09738905     0.19200
H804        H  0.45465362  0.51535120  0.08078907     0.15100
C805        C  0.44239887  0.56505757  0.19684516     0.30500
C806        C  0.41268707  0.57711172  0.19675536    -0.35800
C807        C  0.41254779  0.59915003  0.18168883     0.16500
C808        C  0.43957563  0.60846848  0.16761939     0.22300
C809        C  0.46941785  0.59655854  0.16774227    -0.33900
C810        C  0.46965880  0.57463255  0.18285511     0.16400
O811        O  0.44865436  0.54509027  0.20979108    -0.25900
C812        C  0.48060470  0.54209394  0.20415442     0.06200
C813        C  0.99608593  0.56025156  0.18753707    -0.30800
O814        O  0.43304612  0.62816586  0.15462933    -0.22700
C815        C  0.40145114  0.63156672  0.16045061    -0.02600
C816        C  0.38768474  0.61435712  0.17729251    -0.17100
H817        H  0.39125555  0.56989931  0.20769250     0.20900
H818        H  0.99248072  0.60546842  0.15734158     0.19300
H819        H  0.02245869  0.56375789  0.18019491     0.19200
H820        H  0.36200747  0.61189383  0.18485719     0.15100
C821        C  0.23190807  0.61583473  0.17993613     0.30500
C822        C  0.21021599  0.62167794  0.19386750    -0.35800
C823        C  0.16937227  0.58990538  0.19615641     0.16500
C824        C  0.15092928  0.55480626  0.18547911     0.22300
C825        C  0.17261945  0.54898033  0.17154002    -0.33900
C826        C  0.21351341  0.58068425  0.16929523     0.16400
O827        O  0.27003278  0.64202559  0.17504440    -0.25900
C828        C  0.27599764  0.62350054  0.16099288     0.06200
C829        C  0.24204389  0.58500061  0.15701245    -0.30800
O830        O  0.11266346  0.52876843  0.19026871    -0.22700
C831        C  0.10672634  0.54731738  0.20431731    -0.02600
C832        C  0.14079241  0.58563408  0.20840383    -0.17100
H833        H  0.22416133  0.64908224  0.20231629     0.20900
H834        H  0.15862137  0.52165715  0.16303912     0.19300
H835        H  0.23848033  0.56364907  0.14632594     0.19200
H836        H  0.14414663  0.60719350  0.21893011     0.15100
C837        C  0.43279579  0.79669111  0.17906531     0.30500
C838        C  0.46273563  0.82073805  0.19238204    -0.35800
C839        C  0.46973926  0.86042067  0.19522457     0.16500
C840        C  0.44890279  0.87561101  0.18558949     0.22300
C841        C  0.41906991  0.85162446  0.17221095    -0.33900
C842        C  0.41180175  0.81178552  0.16948246     0.16400
O843        O  0.42198339  0.75903026  0.17394030    -0.25900
C844        C  0.39382358  0.74984891  0.16079988     0.06200
C845        C  0.38572513  0.78132669  0.15771118    -0.30800
O846        O  0.45909624  0.91292212  0.19101864    -0.22700
C847        C  0.48648521  0.92158237  0.20445744    -0.02600
C848        C  0.99501178  0.88971910  0.20767088    -0.17100
H849        H  0.97897281  0.80841050  0.20058302     0.20900
H850        H  0.40234337  0.86305422  0.16460227     0.19300
H851        H  0.36485055  0.78218331  0.14771604     0.19200
H852        H  0.01554859  0.88865732  0.21778738     0.15100
C853        C  0.28446253  0.89245788  0.92637307     0.30500
C854        C  0.31570536  0.88654097  0.93336585    -0.35800
C855        C  0.34558633  0.91825823  0.94432462     0.16500
C856        C  0.34526810  0.95374602  0.94821422     0.22300
C857        C  0.31417611  0.96002959  0.94089080    -0.33900
C858        C  0.28381368  0.92790917  0.92998587     0.16400
O859        O  0.25267941  0.86585983  0.91637795    -0.25900
C860        C  0.23123401  0.88435340  0.91354100     0.06200
C861        C  0.24887840  0.92297969  0.92164271    -0.30800
O862        O  0.37403775  0.97721019  0.96042834    -0.22700
C863        C  0.39266703  0.95614237  0.96426958    -0.02600
C864        C  0.37644248  0.91961541  0.95446317    -0.17100
H865        H  0.31585880  0.85844606  0.93097015     0.20900
H866        H  0.31277325  0.98718652  0.94406058     0.19300
H867        H  0.23765150  0.94419552  0.92131596     0.19200
H868        H  0.38424863  0.89591245  0.95568073     0.15100
C869        C  0.09557769  0.73384466  0.93869667     0.30500
C870        C  0.08645661  0.72401559  0.95688287    -0.35800
C871        C  0.07553618  0.68425724  0.96146941     0.16500
C872        C  0.07325478  0.65572294  0.94903756     0.22300
C873        C  0.08330849  0.66591719  0.93081272    -0.33900
C874        C  0.09453005  0.70603004  0.92622296     0.16400
O875        O  0.10679229  0.76946501  0.93164530    -0.25900
C876        C  0.11317800  0.76495892  0.91432686     0.06200
C877        C  0.10655183  0.72604183  0.91022329    -0.30800
O878        O  0.06124781  0.61995147  0.95641162    -0.22700
C879        C  0.05628256  0.62613927  0.97376715    -0.02600
C880        C  0.06511756  0.66563917  0.97766597    -0.17100
H881        H  0.08780515  0.74591760  0.96678772     0.20900
H882        H  0.08234794  0.64416617  0.92093143     0.19300
H883        H  0.11129574  0.71434027  0.89763743     0.19200
H884        H  0.06368386  0.67860327  0.99058255     0.15100
C885        C  0.08011154  0.88384490  0.93804633     0.30500
C886        C  0.05833475  0.87484974  0.95416530    -0.35800
C887        C  0.05191950  0.90541804  0.96121606     0.16500
C888        C  0.06581334  0.94248473  0.95302326     0.22300
C889        C  0.08817014  0.95174328  0.93688270    -0.33900
C890        C  0.09457858  0.92090384  0.92975858     0.16400
O891        O  0.08927335  0.85933448  0.92923374    -0.25900
C892        C  0.10945023  0.88043155  0.91489473     0.06200
C893        C  0.11432604  0.91933827  0.91460054    -0.30800
O894        O  0.05410489  0.96553951  0.96164990    -0.22700
C895        C  0.03283059  0.94282928  0.97555642    -0.02600
C896        C  0.03067206  0.90527410  0.97593732    -0.17100
H897        H  0.04673146  0.84574497  0.96065711     0.20900
H898        H  0.09915859  0.98056512  0.93021745     0.19300
H899        H  0.13074791  0.94315698  0.90491171     0.19200
H900        H  0.01416462  0.88063274  0.98526141     0.15100
C901        C  0.07059767  0.90719033  0.86600050     0.30500
C902        C  0.04249895  0.92129286  0.86639625    -0.35800
C903        C  0.03951636  0.93996249  0.85063418     0.16500
C904        C  0.06249079  0.94433201  0.83550428     0.22300
C905        C  0.09081933  0.93045386  0.83514714    -0.33900
C906        C  0.09383294  0.91181013  0.85093694     0.16400
O907        O  0.07853609  0.88919794  0.87930399    -0.25900
C908        C  0.10753540  0.88240387  0.87282537     0.06200
C909        C  0.11802297  0.89561646  0.85513613    -0.30800
O910        O  0.05378959  0.96154222  0.82209140    -0.22700
C911        C  0.02483570  0.96834463  0.82867204    -0.02600
C912        C  0.01501523  0.95577854  0.84645452    -0.17100
H913        H  0.02416993  0.91785214  0.87816631     0.20900
H914        H  0.10902238  0.93373342  0.82334984     0.19300
H915        H  0.14093365  0.89456151  0.84674921     0.19200
H916        H  0.49047327  0.95486701  0.85460018     0.15100
C917        C  0.03158046  0.63827962  0.84552460     0.30500
C918        C  0.02563819  0.66324584  0.85783428    -0.35800
C919        C  0.06041963  0.70170828  0.86186888     0.16500
C920        C  0.09853973  0.71482716  0.85433509     0.22300
C921        C  0.10451478  0.68982829  0.84204697    -0.33900
C922        C  0.06972039  0.65135822  0.83802259     0.16400
O923        O  0.50320070  0.60249721  0.83853995    -0.25900
C924        C  0.02335422  0.59089256  0.82810133     0.06200
C925        C  0.06493747  0.62053210  0.82675973    -0.30800
O926        O  0.12705024  0.75146742  0.86042826    -0.22700
C927        C  0.10696822  0.76177456  0.87212535    -0.02600
C928        C  0.06536902  0.73216885  0.87343500    -0.17100
H929        H  0.49518243  0.65574165  0.86161908     0.20900
H930        H  0.13426329  0.69959198  0.83610600     0.19300
H931        H  0.08800646  0.61966412  0.81840338     0.19200
H932        H  0.04255208  0.73257708  0.88212874     0.15100
C933        C  0.29456509  0.91341465  0.86689070     0.30500
C934        C  0.33789848  0.93334909  0.86814795    -0.35800
C935        C  0.35860445  0.94454060  0.85167662     0.16500
C936        C  0.33795043  0.93652567  0.83522268     0.22300
C937        C  0.29468612  0.91641440  0.83397595    -0.33900
C938        C  0.27400540  0.90531986  0.85041648     0.16400
O939        O  0.26910284  0.90055012  0.88051553    -0.25900
C940        C  0.23160621  0.88385169  0.87277813     0.06200
C941        C  0.23286731  0.88603077  0.85398104    -0.30800
O942        O  0.36321344  0.94992688  0.82155724    -0.22700
C943        C  0.40073498  0.96683175  0.82919009    -0.02600
C944        C  0.39975217  0.96429166  0.84800562    -0.17100
H945        H  0.35424297  0.93981985  0.88104852     0.20900
H946        H  0.27834867  0.91005979  0.82108173     0.19300
H947        H  0.20749870  0.87525835  0.84427531     0.19200
H948        H  0.42400845  0.49136182  0.85707672     0.15100
C949        C  0.34717959  0.93344958  0.77262265     0.29600
C950        C  0.31072186  0.90016213  0.76523573    -0.35800
C951        C  0.29212063  0.90892829  0.75066575     0.16500
C952        C  0.30845810  0.94767546  0.74384487     0.22300
C953        C  0.34451252  0.98080480  0.75128746    -0.33900
C954        C  0.36277180  0.97211875  0.76585284     0.16400
O955        O  0.37059020  0.93249096  0.78593524    -0.25900
C956        C  0.40105987  0.97123038  0.78774730     0.06200
C957        C  0.39748297  0.99703277  0.77569612    -0.30800
O958        O  0.28626813  0.94927205  0.73028335    -0.22700
C959        C  0.25510084  0.91107511  0.72829010    -0.02600
C960        C  0.25702532  0.88454573  0.74062903    -0.17100
H961        H  0.29786824  0.86965109  0.77042119     0.20900
H962        H  0.35748175  0.01130325  0.74606330     0.19300
H963        H  0.41957754  0.52778609  0.77504355     0.19200
H964        H  0.23545675  0.85224234  0.74211995     0.15100
C965        C  0.04661162  0.67015228  0.74087115     0.30500
C966        C  0.02331491  0.62819408  0.74350574    -0.35800
C967        C  0.02182696  0.61572751  0.76128306     0.16500
C968        C  0.04131283  0.64236648  0.77568173     0.22300
C969        C  0.06447644  0.68478589  0.77309197    -0.33900
C970        C  0.06642345  0.69745801  0.75511242     0.16400
O971        O  0.05465838  0.68770917  0.72507801    -0.25900
C972        C  0.07999255  0.72692875  0.72905602     0.06200
C973        C  0.08832757  0.73507019  0.74757082    -0.30800
O974        O  0.03666694  0.62310311  0.79103420    -0.22700
C975        C  0.01426742  0.58367030  0.78626130    -0.02600
C976        C  0.50899628  0.57735491  0.76742737    -0.17100
H977        H  0.51608599  0.60614555  0.73181566     0.20900
H978        H  0.08081442  0.70617351  0.78415889     0.19300
H979        H  0.10911950  0.76396553  0.75431977     0.19200
H980        H  0.49358461  0.54951020  0.75936264     0.15100
C981        C  0.08130840  0.94088934  0.74180255     0.30500
C982        C  0.07585228  0.97299733  0.74735926    -0.35800
C983        C  0.05425958  0.96704323  0.76331349     0.16500
C984        C  0.03855379  0.93181954  0.77320851     0.22300
C985        C  0.04362354  0.89921038  0.76749893    -0.33900
C986        C  0.06563370  0.90528736  0.75144741     0.16400
O987        O  0.10256139  0.94127507  0.72776671    -0.25900
C988        C  0.10053151  0.90543707  0.72824563     0.06200
C989        C  0.07770285  0.88144376  0.74260240    -0.30800
O990        O  0.01912685  0.93334269  0.78774218    -0.22700
C991        C  0.02300432  0.97014080  0.78698016    -0.02600
C992        C  0.04442156  0.99218756  0.77208754    -0.17100
H993        H  0.08821909  0.00102350  0.73989920     0.20900
H994        H  0.03175129  0.87142396  0.77509947     0.19300
H995        H  0.07225287  0.85166236  0.74633233     0.19200
H996        H  0.05112945  0.02228251  0.76815099     0.15100
C997        C  0.27154919  0.77409750  0.40814549     0.30500
C998        C  0.26825590  0.80762465  0.41373506    -0.35800
C999        C  0.24632849  0.80265897  0.42957881     0.16500
C1000       C  0.22884216  0.76721619  0.43937139     0.22300
C1001       C  0.23202830  0.73346618  0.43371455    -0.33900
C1002       C  0.25386463  0.73834385  0.41772568     0.16400
O1003       O  0.29166094  0.77273801  0.39396444    -0.25900
C1004       C  0.28674568  0.73557202  0.39429389     0.06200
C1005       C  0.26324657  0.71256216  0.40872053    -0.30800
O1006       O  0.20859193  0.76910569  0.45350162    -0.22700
C1007       C  0.21334921  0.80624253  0.45264047    -0.02600
C1008       C  0.23650027  0.82836491  0.43804961    -0.17100
H1009       H  0.28180717  0.83563979  0.40621851     0.20900
H1010       H  0.21828046  0.70538120  0.44117624     0.19300
H1011       H  0.25549961  0.68200240  0.41235824     0.19200
H1012       H  0.24396778  0.85862457  0.43401012     0.15100
C1013       C  0.03458581  0.76319953  0.43628151     0.30500
C1014       C  0.49577272  0.73060436  0.43077357    -0.35800
C1015       C  0.47741893  0.73743145  0.41554338     0.16500
C1016       C  0.99641477  0.77365685  0.40627943     0.22300
C1017       C  0.03535228  0.80591287  0.41163832    -0.33900
C1018       C  0.05338707  0.79913252  0.42684921     0.16400
O1019       O  0.05702504  0.76427389  0.45043913    -0.25900
C1020       C  0.09040445  0.80145253  0.44995853     0.06200
C1021       C  0.08983302  0.82417569  0.43550001    -0.30800
O1022       O  0.47358903  0.77412730  0.39278676    -0.22700
C1023       C  0.43953083  0.73762625  0.39317297    -0.02600
C1024       C  0.44005970  0.71334107  0.40704259    -0.17100
H1025       H  0.48053358  0.70228051  0.43804986     0.20900
H1026       H  0.05037702  0.83449368  0.40453819     0.19300
H1027       H  0.11255779  0.85506172  0.43205341     0.19200
H1028       H  0.41621820  0.68279976  0.41049188     0.15100
C1029       C  0.20597811  0.95049042  0.43074411     0.30500
C1030       C  0.20121821  0.95982245  0.41299350    -0.35800
C1031       C  0.22630205  0.49583474  0.40812785     0.16500
C1032       C  0.25895982  0.52336619  0.41909321     0.22300
C1033       C  0.26009705  0.02042970  0.43796989    -0.33900
C1034       C  0.23440522  0.97953235  0.44273778     0.16400
O1035       O  0.18650752  0.91399086  0.43756139    -0.25900
C1036       C  0.20216825  0.91908734  0.45422823     0.06200
C1037       C  0.23267227  0.95940242  0.45819737    -0.30800
O1038       O  0.28212691  0.55847400  0.41117727    -0.22700
C1039       C  0.26414880  0.55304494  0.39495201    -0.02600
C1040       C  0.22936133  0.51468320  0.39227147    -0.17100
H1041       H  0.17980753  0.93675305  0.40341205     0.20900
H1042       H  0.28301820  0.04297532  0.44728050     0.19300
H1043       H  0.25211560  0.97187942  0.47021214     0.19200
H1044       H  0.21003074  0.50215314  0.38019806     0.15100
C1045       C  0.27215889  0.74523136  0.59102962     0.30500
C1046       C  0.26824781  0.77855107  0.59686166    -0.35800
C1047       C  0.24595100  0.77291600  0.61282704     0.16500
C1048       C  0.22849747  0.73685739  0.62217599     0.22300
C1049       C  0.23243292  0.70383936  0.61639913    -0.33900
C1050       C  0.25483416  0.70956188  0.60064899     0.16400
O1051       O  0.29311790  0.74397090  0.57698947    -0.25900
C1052       C  0.28894251  0.70699981  0.57779687     0.06200
C1053       C  0.26550711  0.68446544  0.59222580    -0.30800
O1054       O  0.20846643  0.73757249  0.63651904    -0.22700
C1055       C  0.21316055  0.77465222  0.63659418    -0.02600
C1056       C  0.23638527  0.79823144  0.62219965    -0.17100
H1057       H  0.28198705  0.80692771  0.58961721     0.20900
H1058       H  0.21921181  0.67567569  0.62379445     0.19300
H1059       H  0.25844771  0.65430674  0.59622762     0.19200
H1060       H  0.24416621  0.82898771  0.61892058     0.15100
C1061       C  0.50508810  0.73975202  0.62575183     0.30500
C1062       C  0.46630261  0.70790951  0.61997899    -0.35800
C1063       C  0.44953980  0.71494389  0.60439532     0.16500
C1064       C  0.46926865  0.75078249  0.59494497     0.22300
C1065       C  0.00764662  0.78299892  0.60118604    -0.33900
C1066       C  0.02496996  0.77575768  0.61673672     0.16400
O1067       O  0.02719910  0.73816159  0.63952580    -0.25900
C1068       C  0.06158947  0.77447736  0.63954828     0.06200
C1069       C  0.06197669  0.79933861  0.62569424    -0.30800
O1070       O  0.44748796  0.74995202  0.58050674    -0.22700
C1071       C  0.41358745  0.71297858  0.58087338    -0.02600
C1072       C  0.41339843  0.69024887  0.59547768    -0.17100
H1073       H  0.45044626  0.67933260  0.62705178     0.20900
H1074       H  0.02349652  0.81150551  0.59406785     0.19300
H1075       H  0.08637875  0.82976368  0.62242607     0.19200
H1076       H  0.39016085  0.65960379  0.59896365     0.15100
C1077       C  0.29616025  0.56366140  0.60122759     0.30500
C1078       C  0.30179868  0.55393484  0.61882249    -0.35800
C1079       C  0.27413302  0.51409788  0.62406964     0.16500
C1080       C  0.24619735  0.98370166  0.61299085     0.22300
C1081       C  0.23751545  0.49533050  0.59503996    -0.33900
C1082       C  0.26514922  0.53553426  0.58981421     0.16400
O1083       O  0.31750001  0.59971814  0.59400923    -0.25900
C1084       C  0.30054587  0.59512860  0.57762922     0.06200
C1085       C  0.26725265  0.55576317  0.57431233    -0.30800
O1086       O  0.22294992  0.94891250  0.62118690    -0.22700
C1087       C  0.23905760  0.95593384  0.63791100    -0.02600
C1088       C  0.27283664  0.99493147  0.64058972    -0.17100
H1089       H  0.32548649  0.57626572  0.62795172     0.20900
H1090       H  0.21496110  0.97148800  0.58659429     0.19300
H1091       H  0.24666249  0.54410728  0.56259393     0.19200
H1092       H  0.29037141  0.00886503  0.65298471     0.15100
C1093       C  0.24833361  0.77688633  0.50073593     0.30500
C1094       C  0.27995049  0.76732877  0.50098341    -0.35800
C1095       C  0.27993462  0.74383491  0.51551195     0.16500
C1096       C  0.25083916  0.73075370  0.52889274     0.22300
C1097       C  0.21898873  0.74002318  0.52855879    -0.33900
C1098       C  0.21910513  0.76366949  0.51405970     0.16400
O1099       O  0.24244452  0.79824774  0.48836053    -0.25900
C1100       C  0.20899665  0.79885577  0.49376124     0.06200
C1101       C  0.19330387  0.77804160  0.50977448    -0.30800
O1102       O  0.25785179  0.71090999  0.54167044    -0.22700
C1103       C  0.29184233  0.71112902  0.53643044    -0.02600
C1104       C  0.30668473  0.73083852  0.52012222    -0.17100
H1105       H  0.30315125  0.77779056  0.49064146     0.20900
H1106       H  0.19609223  0.73000408  0.53902214     0.19300
H1107       H  0.16617098  0.77317811  0.51690010     0.19200
H1108       H  0.33420783  0.73639765  0.51313011     0.15100
C1109       C  0.24495444  0.96741828  0.51270701     0.30500
C1110       C  0.27799713  0.49276372  0.52462757    -0.35800
C1111       C  0.28464980  0.53249144  0.52692316     0.16500
C1112       C  0.26130985  0.54579795  0.51794572     0.22300
C1113       C  0.22936663  0.51983600  0.50573297    -0.33900
C1114       C  0.21738832  0.97816742  0.50595315     0.16400
O1115       O  0.23649891  0.93088261  0.50689187    -0.25900
C1116       C  0.20306272  0.91804264  0.49628252     0.06200
C1117       C  0.18948434  0.94599034  0.49539529    -0.30800
O1118       O  0.27104346  0.58320642  0.52303848    -0.22700
C1119       C  0.30091520  0.59400151  0.53552359    -0.02600
C1120       C  0.31111996  0.56386705  0.53822250    -0.17100
H1121       H  0.29639176  0.48269416  0.53185918     0.20900
H1122       H  0.21070401  0.52977047  0.49862999     0.19300
H1123       H  0.16444575  0.94397910  0.48714582     0.19200
H1124       H  0.33298227  0.56409352  0.54799064     0.15100
C1125       C  0.46089565  0.74650716  0.51781868     0.30500
C1126       C  0.47959776  0.76606608  0.50169644    -0.35800
C1127       C  0.02062590  0.77704165  0.49999197     0.16500
C1128       C  0.04235601  0.76932693  0.51298466     0.22300
C1129       C  0.02383436  0.75023128  0.52916483    -0.33900
C1130       C  0.48260381  0.73851982  0.53071257     0.16400
O1131       O  0.42234677  0.73356182  0.52250653    -0.25900
C1132       C  0.41940103  0.71739851  0.53872707     0.06200
C1133       C  0.45593106  0.71916510  0.54431202    -0.30800
O1134       O  0.08069579  0.78159108  0.50827801    -0.22700
C1135       C  0.08367196  0.79707013  0.49192581    -0.02600
C1136       C  0.04726176  0.79558371  0.48624690    -0.17100
H1137       H  0.46297938  0.77247304  0.49141312     0.20900
H1138       H  0.04049787  0.74391018  0.53945683     0.19300
H1139       H  0.46196005  0.70698026  0.55636276     0.19200
H1140       H  0.04125950  0.80731268  0.47403740     0.15100
C1141       C  0.83603978  0.17476508  0.54054679     0.46200
H1142       H  0.83756313  0.17529234  0.52555048    -0.02800
C1143       C  0.83302299  0.17230687  0.57561999     0.46300
H1144       H  0.83208634  0.17161142  0.59065278    -0.02800
C1145       C  0.87902510  0.19672639  0.55019956    -0.16500
C1146       C  0.81264921  0.19483700  0.54870524    -0.16200
C1147       C  0.81433038  0.13089499  0.54800089    -0.16600
C1148       C  0.87690498  0.19540087  0.56871355    -0.16600
C1149       C  0.81118215  0.19317082  0.56729169    -0.16200
C1150       C  0.81331807  0.13007358  0.56656585    -0.16500
C1151       C  0.66388542  0.33624825  0.45724487     0.46200
H1152       H  0.66292444  0.33587467  0.44218534    -0.02800
C1153       C  0.66572535  0.33630065  0.49240071     0.46300
H1154       H  0.66632302  0.33685335  0.50742733    -0.02800
C1155       C  0.68597257  0.31514345  0.46496573    -0.16500
C1156       C  0.68608869  0.37898190  0.46576025    -0.16200
C1157       C  0.62101741  0.31519581  0.46538919    -0.16600
C1158       C  0.68678504  0.31449599  0.48354582    -0.16600
C1159       C  0.68740258  0.37969196  0.48437700    -0.16200
C1160       C  0.62154810  0.31493154  0.48398395    -0.16500
O1161       O  0.59360461  0.24469782  0.69957537    -0.80100
O1162       O  0.68967654  0.39017649  0.64846603    -0.64800
O1163       O  0.66403981  0.31101740  0.68491026    -1.11400
C1164       C  0.62929804  0.39712882  0.71784502     1.06800
O1165       O  0.72672304  0.43889593  0.66865473    -0.78000
O1166       O  0.72683780  0.42852216  0.70482909    -0.65600
Ni1167     Ni  0.63006212  0.25417478  0.67966811     1.34900
C1168       C  0.72592903  0.40027259  0.71414746     0.85500
O1169       O  0.69684716  0.32356355  0.65008616    -0.78600
O1170       O  0.66440525  0.25869387  0.65973062    -0.88800
C1171       C  0.71570038  0.42715784  0.65230954     0.85100
O1172       O  0.59082884  0.25656697  0.66384934    -0.67000
O1173       O  0.65273980  0.42506282  0.70702943    -0.86300
C1174       C  0.59229582  0.28451593  0.65411461     0.85900
C1175       C  0.68906156  0.28676487  0.64924894     1.07500
H1176       H  0.62927618  0.36871442  0.67787358     0.39300
O1177       O  0.65537222  0.37295705  0.68253864    -1.09000
O1178       O  0.69648940  0.36358045  0.71329387    -0.65600
Ni1179     Ni  0.64338856  0.33512918  0.70141101     1.26300
O1180       O  0.62312417  0.32057219  0.65396978    -0.65900
O1181       O  0.62302919  0.36084078  0.71737492    -0.78200
C1182       C  0.60443977  0.25792526  0.71576741     0.85300
O1183       O  0.63069350  0.29494598  0.71918729    -0.65300
Ni1184     Ni  0.68877214  0.42984520  0.68783506     1.27400
Ni1185     Ni  0.67628707  0.34912450  0.66603255     1.26100
H1186       H  0.69004170  0.31498998  0.68956105     0.39800
C1187       C  0.98029243  0.00552101  0.79106674     0.46200
H1188       H  0.97816777  0.00239281  0.77614898    -0.02800
C1189       C  0.98316795  0.00802906  0.82612121     0.46300
H1190       H  0.98485908  0.00988980  0.84112200    -0.02800
C1191       C  0.00626316  0.48787909  0.80049921    -0.16500
C1192       C  0.00264782  0.04928472  0.79874808    -0.16200
C1193       C  0.93901495  0.48281434  0.79975920    -0.16600
C1194       C  0.00675347  0.48939093  0.81904962    -0.16600
C1195       C  0.00500413  0.05081950  0.81741598    -0.16200
C1196       C  0.93912066  0.48504685  0.81829232    -0.16500
C1197       C  0.64846997  0.34267817  0.87422594     0.46200
H1198       H  0.64650509  0.34201094  0.85921960    -0.02800
C1199       C  0.65195255  0.34336533  0.90940400     0.46300
H1200       H  0.65406385  0.34419587  0.92444748    -0.02800
C1201       C  0.62748610  0.29961585  0.88241025    -0.16500
C1202       C  0.69286924  0.36507222  0.88214604    -0.16200
C1203       C  0.62765783  0.36440781  0.88335979    -0.16600
C1204       C  0.62942708  0.30027920  0.90101518    -0.16600
C1205       C  0.69431676  0.36507780  0.90069072    -0.16200
C1206       C  0.62924663  0.36402102  0.90195242    -0.16500
C1207       C  0.85696897  0.16783858  0.15992300     0.46200
H1208       H  0.85854340  0.16919814  0.17496096    -0.02800
C1209       C  0.85284822  0.16480717  0.12476047     0.46300
H1210       H  0.85032560  0.16345784  0.10973871    -0.02800
C1211       C  0.87929284  0.14712181  0.15115892    -0.16500
C1212       C  0.81239962  0.14375097  0.15206206    -0.16200
C1213       C  0.87625437  0.21033014  0.15123831    -0.16600
C1214       C  0.87748735  0.14628108  0.13253676    -0.16600
C1215       C  0.81070239  0.14215147  0.13350815    -0.16200
C1216       C  0.87393468  0.20820426  0.13265751    -0.16500
C1217       C  0.52362942  0.50418814  0.20669790     0.46200
H1218       H  0.52311939  0.50349822  0.19165844    -0.02800
C1219       C  0.52526718  0.50512706  0.24185495     0.46300
H1220       H  0.52643173  0.50637678  0.25688426    -0.02800
C1221       C  0.56620700  0.02756061  0.21629799    -0.16500
C1222       C  0.49814485  0.02146146  0.21551995    -0.16200
C1223       C  0.50399814  0.46112967  0.21498316    -0.16600
C1224       C  0.56568049  0.02745443  0.23483375    -0.16600
C1225       C  0.49800893  0.02143357  0.23411487    -0.16200
C1226       C  0.50535296  0.46197319  0.23361183    -0.16500
O1227       O  0.77527070  0.07502558  0.36403067    -0.80100
O1228       O  0.87860365  0.21572369  0.31377552    -0.64800
O1229       O  0.84892641  0.14017659  0.35193330    -1.11400
C1230       C  0.80835748  0.22656752  0.38050553     1.06800
O1231       O  0.91188287  0.26723644  0.33337754    -0.78000
O1232       O  0.90900852  0.25752821  0.36972837    -0.65600
Ni1233     Ni  0.81732513  0.08284085  0.34726716     1.34900
C1234       C  0.90547326  0.23035914  0.38058582     0.85500
O1235       O  0.88574684  0.14924390  0.31816723    -0.78600
O1236       O  0.85741699  0.08680185  0.33041823    -0.88800
C1237       C  0.90334179  0.25329180  0.31716561     0.85100
O1238       O  0.78255074  0.08162259  0.32789098    -0.67000
O1239       O  0.83468215  0.25460631  0.37043075    -0.86300
C1240       C  0.78308285  0.10926012  0.31826549     0.85900
C1241       C  0.88093666  0.11348403  0.31916254     1.07500
H1242       H  0.81474934  0.19696802  0.34107340     0.39300
O1243       O  0.83996266  0.20136784  0.34686342    -1.09000
O1244       O  0.87487027  0.19411669  0.38028855    -0.65600
Ni1245     Ni  0.82441331  0.16423024  0.36625477     1.26300
O1246       O  0.81140061  0.14648508  0.31942586    -0.65900
O1247       O  0.80032099  0.18968947  0.37995771    -0.78200
C1248       C  0.78326659  0.08710747  0.38044552     0.85300
O1249       O  0.80809286  0.12423530  0.38444235    -0.65300
Ni1250     Ni  0.87227426  0.25848009  0.35188407     1.27400
Ni1251     Ni  0.86333427  0.17639307  0.33228446     1.26100
H1252       H  0.87438309  0.14543769  0.35779189     0.39800
O1253       O  0.55326178  0.11246683  0.00384619    -0.80100
O1254       O  0.98566419  0.44466475  0.04862696    -0.64800
O1255       O  0.54125556  0.03687201  0.01532033    -1.11400
C1256       C  0.92100791  0.46363632  0.97873273     1.06800
O1257       O  0.93752292  0.39621093  0.03039121    -0.78000
O1258       O  0.98269043  0.42262305  0.99950137    -0.65600
Ni1259     Ni  0.56655166  0.09152191  0.02492574     1.34900
C1260       C  0.50832759  0.44981244  0.98792644     0.85500
O1261       O  0.56649044  0.01287241  0.04580047    -0.78600
O1262       O  0.58540992  0.07882941  0.04706921    -0.88800
C1263       C  0.95682804  0.40835934  0.04547943     0.85100
O1264       O  0.51719721  0.08238917  0.03589023    -0.67000
O1265       O  0.92220167  0.43301201  0.98457321    -0.86300
C1266       C  0.99742440  0.05545874  0.04797548     0.85900
C1267       C  0.58843220  0.04872085  0.05246381     1.07500
H1268       H  0.94501346  0.47961501  0.02430140     0.39300
O1269       O  0.96370485  0.47389894  0.01775886    -1.09000
O1270       O  0.50859531  0.48311250  0.98520710    -0.65600
Ni1271     Ni  0.99184010  0.01802190  0.00046360     1.26300
O1272       O  0.99923237  0.02299042  0.04928328    -0.65900
O1273       O  0.94307204  0.49903597  0.98576133    -0.78200
C1274       C  0.54092570  0.09900281  0.98777812     0.85300
O1275       O  0.52084634  0.06136960  0.98369703    -0.65300
Ni1276     Ni  0.93346186  0.41904058  0.00808808     1.27400
Ni1277     Ni  0.51404917  0.49010278  0.03199065     1.26100
H1278       H  0.56183816  0.03385835  0.00886006     0.39800
C1279       C  0.69909853  0.06099525  0.28777262     0.30500
C1280       C  0.66641544  0.02802524  0.27830516    -0.35800
C1281       C  0.64439115  0.03798709  0.26598237     0.16500
C1282       C  0.65362809  0.07760674  0.26321676     0.22300
C1283       C  0.68658034  0.11063181  0.27256719    -0.33900
C1284       C  0.70879472  0.10068935  0.28482488     0.16400
O1285       O  0.72355569  0.05867680  0.30004938    -0.25900
C1286       C  0.74943734  0.09740494  0.30493127     0.06200
C1287       C  0.74179820  0.12490276  0.29588463    -0.30800
O1288       O  0.62783205  0.07963445  0.25157970    -0.22700
C1289       C  0.60228012  0.04087962  0.24668055    -0.02600
C1290       C  0.61093005  0.01365435  0.25523366    -0.17100
H1291       H  0.65850413  0.99678201  0.28049763     0.20900
H1292       H  0.69413581  0.14182361  0.27054662     0.19300
H1293       H  0.75812445  0.15786217  0.29731225     0.19200
H1294       H  0.59991292  0.48159079  0.25034700     0.15100
C1295       C  0.95878115  0.36762639  0.25628860     0.30500
C1296       C  0.93030641  0.32616846  0.25935540    -0.35800
C1297       C  0.93262056  0.31192299  0.27660135     0.16500
C1298       C  0.96083272  0.33691174  0.28981408     0.22300
C1299       C  0.98963646  0.37776165  0.28660400    -0.33900
C1300       C  0.98734132  0.39179147  0.26950176     0.16400
O1301       O  0.96119466  0.38840662  0.24164303    -0.25900
C1302       C  0.99204566  0.42615550  0.24560857     0.06200
C1303       C  0.00921931  0.42967363  0.26277885    -0.30800
O1304       O  0.95520067  0.31895450  0.30547649    -0.22700
C1305       C  0.92326413  0.28167507  0.30235239    -0.02600
C1306       C  0.90810842  0.27525155  0.28455791    -0.17100
H1307       H  0.90722618  0.30680950  0.24927132     0.20900
H1308       H  0.01139023  0.39769667  0.29698152     0.19300
H1309       H  0.03415058  0.45632848  0.26957702     0.19200
H1310       H  0.88122962  0.24855432  0.27875819     0.15100
C1311       C  0.94735896  0.03953640  0.26895085     0.30500
C1312       C  0.92634852  0.03138167  0.28527952    -0.35800
C1313       C  0.91976645  0.06214610  0.29200509     0.16500
C1314       C  0.93272703  0.09850632  0.28330248     0.22300
C1315       C  0.95378732  0.10665202  0.26687612    -0.33900
C1316       C  0.96047277  0.07577362  0.26011753     0.16400
O1317       O  0.95800964  0.01553135  0.26066271    -0.25900
C1318       C  0.97775794  0.03621056  0.24614746     0.06200
C1319       C  0.98064246  0.07416864  0.24516394    -0.30800
O1320       O  0.92217228  0.12244112  0.29194317    -0.22700
C1321       C  0.90230383  0.10096609  0.30633292    -0.02600
C1322       C  0.90008384  0.06333974  0.30705153    -0.17100
H1323       H  0.91602611  0.00306858  0.29230366     0.20900
H1324       H  0.96422673  0.13500323  0.25987870     0.19300
H1325       H  0.99661699  0.09768312  0.23529985     0.19200
H1326       H  0.88497208  0.03970918  0.31695792     0.15100
C1327       C  0.94494631  0.34889786  0.08336277     0.30500
C1328       C  0.95510471  0.33832592  0.10003764    -0.35800
C1329       C  0.92621615  0.29953622  0.10639644     0.16500
C1330       C  0.89021696  0.27326151  0.09689981     0.22300
C1331       C  0.88035801  0.28358170  0.08029184    -0.33900
C1332       C  0.90891823  0.32207255  0.07402292     0.16400
O1333       O  0.96690549  0.38350249  0.07475740    -0.25900
C1334       C  0.94445610  0.37822451  0.05977352     0.06200
C1335       C  0.90819609  0.34061208  0.05864748    -0.30800
O1336       O  0.86755042  0.23866383  0.10509457    -0.22700
C1337       C  0.88873702  0.24258350  0.12021407    -0.02600
C1338       C  0.92594415  0.27966869  0.12171866    -0.17100
H1339       H  0.98330582  0.35882880  0.10751290     0.20900
H1340       H  0.85224043  0.26297790  0.07278159     0.19300
H1341       H  0.88467336  0.32866669  0.04799671     0.19200
H1342       H  0.94949809  0.29008426  0.13231330     0.15100
C1343       C  0.66947755  0.06216777  0.08122601     0.30500
C1344       C  0.70528915  0.06125606  0.08611940    -0.35800
C1345       C  0.72829680  0.08633273  0.10095304     0.16500
C1346       C  0.71650803  0.11008174  0.11054996     0.22300
C1347       C  0.68092746  0.11119754  0.10559948    -0.33900
C1348       C  0.65835920  0.08671256  0.09059715     0.16400
O1349       O  0.64493840  0.04346649  0.06703342    -0.25900
C1350       C  0.61811471  0.05661325  0.06728550     0.06200
C1351       C  0.62504749  0.08356493  0.08160316    -0.30800
O1352       O  0.74315906  0.13201264  0.12361850    -0.22700
C1353       C  0.77252158  0.12239222  0.12226591    -0.02600
C1354       C  0.76515164  0.09441170  0.10835660    -0.17100
H1355       H  0.71523742  0.04329849  0.07854270     0.20900
H1356       H  0.67214953  0.13076239  0.11260956     0.19300
H1357       H  0.60888650  0.09981058  0.08447516     0.19200
H1358       H  0.78454328  0.08237746  0.10418315     0.15100
C1359       C  0.91875083  0.09546493  0.10772760     0.30500
C1360       C  0.92946413  0.06577130  0.10347621    -0.35800
C1361       C  0.94669068  0.06878045  0.08630821     0.16500
C1362       C  0.95300401  0.09904191  0.07437444     0.22300
C1363       C  0.94257019  0.12851084  0.07863615    -0.33900
C1364       C  0.92543978  0.12543384  0.09559686     0.16400
O1365       O  0.90152507  0.09858023  0.12274670    -0.25900
C1366       C  0.89763626  0.13116624  0.12004794     0.06200
C1367       C  0.91212236  0.14887719  0.10340090    -0.30800
O1368       O  0.97030720  0.09723881  0.05932983    -0.22700
C1369       C  0.97509685  0.06523681  0.06139057    -0.02600
C1370       C  0.96097280  0.04613420  0.07793321    -0.17100
H1371       H  0.92470254  0.04211343  0.11282398     0.20900
H1372       H  0.94758143  0.15234909  0.06934396     0.19300
H1373       H  0.91269172  0.17532565  0.09775803     0.19200
H1374       H  0.96238084  0.02039760  0.08321584     0.15100
C1375       C  0.93958006  0.06061266  0.19727073     0.30500
C1376       C  0.90931475  0.07190651  0.19724901    -0.35800
C1377       C  0.90991025  0.09541135  0.18265530     0.16500
C1378       C  0.93818080  0.10682524  0.16897346     0.22300
C1379       C  0.96856863  0.09563804  0.16902741    -0.33900
C1380       C  0.96801508  0.07216340  0.18365314     0.16400
O1381       O  0.94549796  0.03986808  0.20991548    -0.25900
C1382       C  0.97828721  0.03822577  0.20442794     0.06200
C1383       C  0.49307992  0.05797000  0.18792945    -0.30800
O1384       O  0.93210284  0.12752450  0.15633289    -0.22700
C1385       C  0.89950952  0.12936800  0.16197551    -0.02600
C1386       C  0.88470344  0.11029522  0.17838508    -0.17100
H1387       H  0.88696953  0.06309768  0.20790279     0.20900
H1388       H  0.49099420  0.10528936  0.15828638     0.19300
H1389       H  0.52015103  0.06243594  0.18087654     0.19200
H1390       H  0.85810350  0.10637397  0.18567379     0.15100
C1391       C  0.73108808  0.11585236  0.18233877     0.30500
C1392       C  0.70893163  0.12178316  0.19605713    -0.35800
C1393       C  0.66797312  0.08995039  0.19818484     0.16500
C1394       C  0.65002271  0.05466366  0.18763596     0.22300
C1395       C  0.67216991  0.04874327  0.17396730    -0.33900
C1396       C  0.71299865  0.08054230  0.17180335     0.16400
O1397       O  0.76913991  0.14224286  0.17737269    -0.25900
C1398       C  0.77521219  0.12361874  0.16337503     0.06200
C1399       C  0.74150450  0.08496335  0.15951040    -0.30800
O1400       O  0.61154944  0.02864982  0.19213690    -0.22700
C1401       C  0.60481534  0.04735697  0.20586312    -0.02600
C1402       C  0.63865411  0.08586600  0.20999845    -0.17100
H1403       H  0.72249883  0.14938956  0.20436640     0.20900
H1404       H  0.65843068  0.02136823  0.16550467     0.19300
H1405       H  0.73801618  0.06368334  0.14880059     0.19200
H1406       H  0.64135892  0.10775838  0.22020951     0.15100
C1407       C  0.93278523  0.29635936  0.17999835     0.30500
C1408       C  0.96299463  0.32100350  0.19307624    -0.35800
C1409       C  0.97044477  0.36095618  0.19531336     0.16500
C1410       C  0.94946724  0.37574087  0.18549688     0.22300
C1411       C  0.91933242  0.35113167  0.17235563    -0.33900
C1412       C  0.91196944  0.31117643  0.17007666     0.16400
O1413       O  0.92188467  0.25849253  0.17525820    -0.25900
C1414       C  0.89399328  0.24902349  0.16198493     0.06200
C1415       C  0.88615499  0.28045187  0.15840364    -0.30800
O1416       O  0.96001767  0.41340832  0.19048265    -0.22700
C1417       C  0.98790541  0.42271456  0.20376351    -0.02600
C1418       C  0.49605678  0.39239587  0.20673697    -0.17100
H1419       H  0.48107435  0.31148412  0.20003283     0.20900
H1420       H  0.90264068  0.36226498  0.16451876     0.19300
H1421       H  0.86547818  0.28102334  0.14821668     0.19200
H1422       H  0.51736193  0.39202950  0.21664279     0.15100
C1423       C  0.78956768  0.39682465  0.92249764     0.30500
C1424       C  0.82459759  0.39480673  0.92754676    -0.35800
C1425       C  0.85047919  0.42313461  0.94089650     0.16500
C1426       C  0.84305417  0.45213512  0.94852419     0.22300
C1427       C  0.80814662  0.45437401  0.94331061    -0.33900
C1428       C  0.78167191  0.42536617  0.93027912     0.16400
O1429       O  0.76000978  0.37178556  0.91106616    -0.25900
C1430       C  0.73270455  0.38424007  0.91171765     0.06200
C1431       C  0.74432841  0.41726479  0.92345149    -0.30800
O1432       O  0.86901473  0.47275688  0.96207453    -0.22700
C1433       C  0.89311533  0.45649340  0.96318908    -0.02600
C1434       C  0.88305530  0.42567404  0.95029433    -0.17100
H1435       H  0.83024072  0.37154586  0.92207296     0.20900
H1436       H  0.80099872  0.47584258  0.94964392     0.19300
H1437       H  0.72762083  0.43289494  0.92645559     0.19200
H1438       H  0.89591514  0.40590358  0.94897711     0.15100
C1439       C  0.58984915  0.23411408  0.93735932     0.30500
C1440       C  0.57916719  0.22488611  0.95544211    -0.35800
C1441       C  0.56743776  0.18521904  0.96042406     0.16500
C1442       C  0.56562551  0.15620310  0.94840404     0.22300
C1443       C  0.57667611  0.16560180  0.93023185    -0.33900
C1444       C  0.58904786  0.20572692  0.92528973     0.16400
O1445       O  0.60322707  0.26991447  0.93015755    -0.25900
C1446       C  0.61128656  0.26493732  0.91317314     0.06200
C1447       C  0.60355283  0.22553775  0.90940207    -0.30800
O1448       O  0.55476043  0.12129075  0.95628004    -0.22700
C1449       C  0.55017259  0.12855860  0.97352098    -0.02600
C1450       C  0.55770309  0.16776611  0.97687245    -0.17100
H1451       H  0.58082340  0.24741793  0.96506274     0.20900
H1452       H  0.57648117  0.14354092  0.92075779     0.19300
H1453       H  0.60931319  0.21347263  0.89717000     0.19200
H1454       H  0.55686141  0.18156841  0.98965087     0.15100
C1455       C  0.57941701  0.38101280  0.93771083     0.30500
C1456       C  0.55658612  0.37088456  0.95357976    -0.35800
C1457       C  0.55064738  0.40139662  0.96112593     0.16500
C1458       C  0.56593293  0.43932534  0.95357291     0.22300
C1459       C  0.58914501  0.44961030  0.93769973    -0.33900
C1460       C  0.59510396  0.41894558  0.93011008     0.16400
O1461       O  0.58867636  0.35697954  0.92854449    -0.25900
C1462       C  0.61011763  0.37939152  0.91470588     0.06200
C1463       C  0.61562474  0.41851004  0.91505035    -0.30800
O1464       O  0.55450564  0.46225276  0.96242558    -0.22700
C1465       C  0.53193548  0.43867969  0.97584492    -0.02600
C1466       C  0.52868994  0.40059329  0.97573589    -0.17100
H1467       H  0.54396208  0.34109198  0.95952692     0.20900
H1468       H  0.60113501  0.47913604  0.93156555     0.19300
H1469       H  0.63291768  0.44314445  0.90582425     0.19200
H1470       H  0.51095096  0.37526361  0.98458268     0.15100
C1471       C  0.57310851  0.41046673  0.86682997     0.30500
C1472       C  0.54456700  0.42396964  0.86737715    -0.35800
C1473       C  0.54322102  0.44505482  0.85219175     0.16500
C1474       C  0.56829832  0.45233865  0.83752212     0.22300
C1475       C  0.59718388  0.43925950  0.83705696    -0.33900
C1476       C  0.59837576  0.41801618  0.85221039     0.16400
O1477       O  0.57923660  0.38987707  0.87947910    -0.25900
C1478       C  0.60894992  0.38427365  0.87296429     0.06200
C1479       C  0.62189019  0.40094004  0.85596314    -0.30800
O1480       O  0.55997170  0.47013485  0.82431380    -0.22700
C1481       C  0.52911787  0.47430239  0.83052799    -0.02600
C1482       C  0.51774955  0.45970433  0.84792993    -0.17100
H1483       H  0.52435440  0.41784693  0.87871511     0.20900
H1484       H  0.61666388  0.44447205  0.82551749     0.19300
H1485       H  0.64586424  0.40140203  0.84778001     0.19200
H1486       H  0.99191644  0.45760452  0.85572240     0.15100
C1487       C  0.53316328  0.13649464  0.84629875     0.30500
C1488       C  0.52658711  0.16199388  0.85797921    -0.35800
C1489       C  0.56098879  0.20085832  0.86165632     0.16500
C1490       C  0.59941386  0.21367237  0.85450854     0.22300
C1491       C  0.60609818  0.18803021  0.84295630    -0.33900
C1492       C  0.57159891  0.14927538  0.83916927     0.16400
O1493       O  0.00621146  0.09786755  0.84107603    -0.25900
C1494       C  0.52532788  0.08908991  0.82905937     0.06200
C1495       C  0.56710261  0.11834844  0.82806715    -0.30800
O1496       O  0.62748573  0.25080204  0.86018257    -0.22700
C1497       C  0.60678025  0.26182259  0.87114612    -0.02600
C1498       C  0.56520787  0.23214338  0.87244105    -0.17100
H1499       H  0.99868163  0.14797928  0.86624335     0.20900
H1500       H  0.63603374  0.19770523  0.83723313     0.19300
H1501       H  0.59029905  0.11751065  0.81979004     0.19200
H1502       H  0.54206390  0.23289839  0.88078229     0.15100
C1503       C  0.79232199  0.42531145  0.86482353     0.30500
C1504       C  0.83527635  0.45171387  0.86603876    -0.35800
C1505       C  0.85696486  0.45549326  0.85019825     0.16500
C1506       C  0.83751550  0.43507992  0.83428077     0.22300
C1507       C  0.79450333  0.40909216  0.83300185    -0.33900
C1508       C  0.77286579  0.40494871  0.84889082     0.16400
O1509       O  0.76665075  0.41487524  0.87830753    -0.25900
C1510       C  0.73025747  0.38718195  0.87106564     0.06200
C1511       C  0.73212655  0.38020503  0.85266679    -0.30800
O1512       O  0.86371854  0.44244072  0.82123825    -0.22700
C1513       C  0.90056996  0.46796749  0.82876464    -0.02600
C1514       C  0.89826101  0.47707602  0.84686941    -0.17100
H1515       H  0.85076541  0.46721112  0.87859546     0.20900
H1516       H  0.77917167  0.39248169  0.82061593     0.19300
H1517       H  0.70770780  0.35858176  0.84361502     0.19200
H1518       H  0.92451191  0.96781096  0.85678044     0.15100
C1519       C  0.85014684  0.43130854  0.77183709     0.29600
C1520       C  0.81565834  0.39798939  0.76329038    -0.35800
C1521       C  0.79683293  0.40767441  0.74916678     0.16500
C1522       C  0.81097484  0.44730629  0.74391140     0.22300
C1523       C  0.84501187  0.48040443  0.75252053    -0.33900
C1524       C  0.86371590  0.47079153  0.76653918     0.16400
O1525       O  0.87387607  0.42972513  0.78479235    -0.25900
C1526       C  0.90247709  0.46878356  0.78777837     0.06200
C1527       C  0.89763015  0.49548041  0.77684593    -0.30800
O1528       O  0.78878460  0.44967595  0.73058298    -0.22700
C1529       C  0.75989939  0.41109458  0.72716569    -0.02600
C1530       C  0.76329415  0.38350655  0.73830003    -0.17100
H1531       H  0.80456971  0.36682144  0.76723110     0.20900
H1532       H  0.85633079  0.51154868  0.74847665     0.19300
H1533       H  0.92059079  0.02849934  0.77245709     0.19200
H1534       H  0.74337382  0.35065874  0.73861693     0.15100
C1535       C  0.54830273  0.17390921  0.74279938     0.30500
C1536       C  0.52118071  0.13263282  0.74568871    -0.35800
C1537       C  0.52217027  0.11925833  0.76304844     0.16500
C1538       C  0.54726520  0.14448398  0.77693194     0.22300
C1539       C  0.57441605  0.18635668  0.77410888    -0.33900
C1540       C  0.57400074  0.19985985  0.75646611     0.16400
O1541       O  0.55484071  0.19149774  0.72705866    -0.25900
C1542       C  0.58507896  0.22939857  0.73049012     0.06200
C1543       C  0.59825323  0.23669486  0.74859516    -0.30800
O1544       O  0.54377124  0.12415127  0.79185795    -0.22700
C1545       C  0.51643383  0.08545174  0.78724923    -0.02600
C1546       C  0.00597524  0.07919151  0.76791035    -0.17100
H1547       H  0.01029132  0.10885858  0.73266287     0.20900
H1548       H  0.59535364  0.20651936  0.78465225     0.19300
H1549       H  0.62343037  0.26426271  0.75475667     0.19200
H1550       H  0.98810907  0.05170612  0.75980388     0.15100
C1551       C  0.59194140  0.44539851  0.74555791     0.30500
C1552       C  0.58660672  0.47769991  0.75098644    -0.35800
C1553       C  0.56395060  0.47161475  0.76663666     0.16500
C1554       C  0.54752307  0.43621251  0.77643696     0.22300
C1555       C  0.55295008  0.40364065  0.77097690    -0.33900
C1556       C  0.57566975  0.40969376  0.75514337     0.16400
O1557       O  0.61221153  0.44505137  0.73128748    -0.25900
C1558       C  0.60900538  0.40865531  0.73153788     0.06200
C1559       C  0.58648759  0.38505877  0.74605120    -0.30800
O1560       O  0.52591442  0.43695412  0.79029030    -0.22700
C1561       C  0.52896437  0.47336765  0.78919297    -0.02600
C1562       C  0.55217126  0.49604437  0.77476534    -0.17100
H1563       H  0.59896233  0.50556076  0.74340342     0.20900
H1564       H  0.54000108  0.37551494  0.77838497     0.19300
H1565       H  0.57966141  0.35466722  0.74948980     0.19200
H1566       H  0.55835117  0.52581770  0.77057972     0.15100
C1567       C  0.77073163  0.27505350  0.40835477     0.30500
C1568       C  0.76671342  0.30775252  0.41460867    -0.35800
C1569       C  0.74261523  0.30047018  0.42994276     0.16500
C1570       C  0.72378097  0.26363434  0.43869793     0.22300
C1571       C  0.72783907  0.23076320  0.43242471    -0.33900
C1572       C  0.75183524  0.23798256  0.41692690     0.16400
O1573       O  0.79225335  0.27554102  0.39432194    -0.25900
C1574       C  0.78704491  0.23824143  0.39374202     0.06200
C1575       C  0.76206719  0.21340893  0.40745383    -0.30800
O1576       O  0.70188312  0.26362938  0.45259262    -0.22700
C1577       C  0.70707896  0.30102473  0.45263715    -0.02600
C1578       C  0.73191775  0.32505708  0.43883113    -0.17100
H1579       H  0.78122707  0.33684174  0.40791618     0.20900
H1580       H  0.71312758  0.20160689  0.43905839     0.19300
H1581       H  0.75354509  0.18222435  0.41025325     0.19200
H1582       H  0.74029157  0.35604707  0.43566978     0.15100
C1583       C  0.52848830  0.26504505  0.43946725     0.30500
C1584       C  0.99089918  0.23221564  0.43285137    -0.35800
C1585       C  0.97321856  0.24066594  0.41782641     0.16500
C1586       C  0.49095419  0.27906478  0.41015466     0.22300
C1587       C  0.52768346  0.31188786  0.41726404    -0.33900
C1588       C  0.54557929  0.30323107  0.43198037     0.16400
O1589       O  0.55191178  0.26380333  0.45269385    -0.25900
C1590       C  0.58429041  0.30170385  0.45348030     0.06200
C1591       C  0.58181235  0.32737971  0.44098785    -0.30800
O1592       O  0.97009225  0.27989691  0.39604261    -0.22700
C1593       C  0.93810731  0.24204941  0.39449793    -0.02600
C1594       C  0.93829312  0.21624241  0.40772211    -0.17100
H1595       H  0.97685474  0.20214760  0.43862609     0.20900
H1596       H  0.54185195  0.34193580  0.41145652     0.19300
H1597       H  0.60395012  0.35914175  0.43865947     0.19200
H1598       H  0.91595296  0.18427308  0.40960259     0.15100
C1599       C  0.70477386  0.44562445  0.43037776     0.30500
C1600       C  0.69812002  0.45591668  0.41308251    -0.35800
C1601       C  0.72684939  0.00009969  0.40782966     0.16500
C1602       C  0.75482820  0.02985204  0.41975615     0.22300
C1603       C  0.76464222  0.51322051  0.43641143    -0.33900
C1604       C  0.73699890  0.47311165  0.44149592     0.16400
O1605       O  0.68307527  0.40975280  0.43765785    -0.25900
C1606       C  0.70123729  0.41407893  0.45372023     0.06200
C1607       C  0.73562633  0.45273971  0.45673955    -0.30800
O1608       O  0.77749341  0.06518392  0.41187701    -0.22700
C1609       C  0.76374221  0.05758517  0.39476710    -0.02600
C1610       C  0.73229316  0.01765658  0.39147883    -0.17100
H1611       H  0.67348701  0.43412063  0.40414614     0.20900
H1612       H  0.79013185  0.53450791  0.44512093     0.19300
H1613       H  0.75708715  0.46397789  0.46816889     0.19200
H1614       H  0.71694657  0.00327903  0.37872987     0.15100
C1615       C  0.77232271  0.24635040  0.59172662     0.30500
C1616       C  0.76562655  0.27852289  0.59648322    -0.35800
C1617       C  0.74318532  0.27320933  0.61235709     0.16500
C1618       C  0.72844585  0.23859644  0.62263261     0.22300
C1619       C  0.73514189  0.20677050  0.61791229    -0.33900
C1620       C  0.75734083  0.21204535  0.60218837     0.16400
O1621       O  0.79296465  0.24459552  0.57770300    -0.25900
C1622       C  0.79043541  0.20844517  0.57924293     0.06200
C1623       C  0.76886329  0.18719069  0.59427299    -0.30800
O1624       O  0.70794392  0.23931804  0.63674890    -0.22700
C1625       C  0.70949510  0.27490313  0.63573188    -0.02600
C1626       C  0.73113061  0.29756672  0.62084671    -0.17100
H1627       H  0.77710653  0.30565665  0.58844331     0.20900
H1628       H  0.72375116  0.17966601  0.62596908     0.19300
H1629       H  0.76280943  0.15767909  0.59878962     0.19200
H1630       H  0.73662348  0.32717712  0.61679777     0.15100
C1631       C  0.00294877  0.23789236  0.62662147     0.30500
C1632       C  0.96714454  0.20434765  0.61932985    -0.35800
C1633       C  0.94881039  0.21223210  0.60458121     0.16500
C1634       C  0.96428369  0.25050204  0.59736337     0.22300
C1635       C  0.50120276  0.28299691  0.60461896    -0.33900
C1636       C  0.51911828  0.27522689  0.61976270     0.16400
O1637       O  0.52520614  0.23574069  0.64053836    -0.25900
C1638       C  0.55692976  0.27372513  0.64190495     0.06200
C1639       C  0.55473599  0.29982665  0.62940823    -0.30800
O1640       O  0.94190450  0.25018863  0.58330273    -0.22700
C1641       C  0.91199122  0.21116455  0.58171646    -0.02600
C1642       C  0.91479693  0.18642931  0.59458830    -0.17100
H1643       H  0.95485286  0.17395148  0.62458093     0.20900
H1644       H  0.51466856  0.31297897  0.59879346     0.19300
H1645       H  0.57705475  0.33166970  0.62722248     0.19200
H1646       H  0.89465461  0.15398802  0.59630096     0.15100
C1647       C  0.79645728  0.06255263  0.60143664     0.30500
C1648       C  0.80263517  0.05290273  0.61893888    -0.35800
C1649       C  0.77555795  0.01294437  0.62414736     0.16500
C1650       C  0.74109128  0.48532700  0.61302501     0.22300
C1651       C  0.73863967  0.99381923  0.59517774    -0.33900
C1652       C  0.76565448  0.03419306  0.59000383     0.16400
O1653       O  0.81682060  0.09883847  0.59440714    -0.25900
C1654       C  0.79942172  0.09417783  0.57814236     0.06200
C1655       C  0.76698245  0.05447853  0.57463469    -0.30800
O1656       O  0.71796119  0.45017961  0.62106285    -0.22700
C1657       C  0.73386378  0.45693579  0.63783975    -0.02600
C1658       C  0.76715591  0.49617011  0.64070507    -0.17100
H1659       H  0.82607431  0.07546176  0.62808205     0.20900
H1660       H  0.71181720  0.47308514  0.58615717     0.19300
H1661       H  0.74630124  0.04265573  0.56295336     0.19200
H1662       H  0.78486822  0.50978603  0.65309433     0.15100
C1663       C  0.74385035  0.27101164  0.50029277     0.30500
C1664       C  0.77134682  0.25617386  0.49947902    -0.35800
C1665       C  0.77628376  0.23933134  0.51545729     0.16500
C1666       C  0.75538827  0.23714585  0.53101707     0.22300
C1667       C  0.72805914  0.25204630  0.53184187    -0.33900
C1668       C  0.72327846  0.26900908  0.51593811     0.16400
O1669       O  0.73424482  0.28761271  0.48696859    -0.25900
C1670       C  0.70710539  0.29631942  0.49411783     0.06200
C1671       C  0.69930231  0.28555583  0.51218537    -0.30800
O1672       O  0.76477230  0.22067538  0.54441235    -0.22700
C1673       C  0.79249964  0.21250854  0.53759617    -0.02600
C1674       C  0.80065256  0.22320571  0.51948862    -0.17100
H1675       H  0.78772519  0.25771652  0.48727333     0.20900
H1676       H  0.71178899  0.25062667  0.54406762     0.19300
H1677       H  0.67832715  0.28847027  0.52116781     0.19200
H1678       H  0.82203739  0.22052477  0.51068430     0.15100
C1679       C  0.74647529  0.46697620  0.51231181     0.30500
C1680       C  0.78046883  0.99574615  0.52286801    -0.35800
C1681       C  0.78393642  0.03373875  0.52663337     0.16500
C1682       C  0.75538014  0.04370257  0.52040569     0.22300
C1683       C  0.72081083  0.01584500  0.50985754    -0.33900
C1684       C  0.72245400  0.47997168  0.50371276     0.16400
O1685       O  0.73602499  0.42919781  0.50747502    -0.25900
C1686       C  0.70491026  0.41787100  0.49558624     0.06200
C1687       C  0.69473167  0.44804840  0.49300201    -0.30800
O1688       O  0.76363225  0.08016836  0.52620215    -0.22700
C1689       C  0.79788801  0.09376919  0.53631188    -0.02600
C1690       C  0.81209955  0.06629066  0.53696511    -0.17100
H1691       H  0.80317689  0.98837461  0.52776251     0.20900
H1692       H  0.69818856  0.02327471  0.50490580     0.19300
H1693       H  0.67176777  0.44731249  0.48373925     0.19200
H1694       H  0.83802027  0.06903294  0.54477719     0.15100
C1695       C  0.96090010  0.24699450  0.52032838     0.30500
C1696       C  0.98088689  0.26965962  0.50511898    -0.35800
C1697       C  0.52196481  0.27947828  0.50351261     0.16500
C1698       C  0.54226876  0.26775903  0.51553084     0.22300
C1699       C  0.52230632  0.24491297  0.53078967    -0.33900
C1700       C  0.98121275  0.23593454  0.53267586     0.16400
O1701       O  0.92234402  0.23420394  0.52468742    -0.25900
C1702       C  0.91799150  0.21516647  0.54017677     0.06200
C1703       C  0.95350886  0.21484994  0.54567330    -0.30800
O1704       O  0.58034680  0.27951025  0.51057593    -0.22700
C1705       C  0.58415439  0.29866713  0.49511230    -0.02600
C1706       C  0.54901983  0.30028184  0.49035182    -0.17100
H1707       H  0.96532356  0.27849305  0.49531915     0.20900
H1708       H  0.53771322  0.23544588  0.54037704     0.19300
H1709       H  0.95828209  0.20079241  0.55738580     0.19200
H1710       H  0.54374019  0.31449497  0.47884315     0.15100
C1711       C  0.83685911  0.67524478  0.53981941     0.46200
H1712       H  0.83821662  0.67582029  0.52480611    -0.02800
C1713       C  0.83354194  0.67299770  0.57487097     0.46300
H1714       H  0.83213039  0.67246183  0.58989335    -0.02800
C1715       C  0.87999922  0.69866137  0.54943098    -0.16500
C1716       C  0.81206034  0.69400338  0.54785180    -0.16200
C1717       C  0.81636943  0.63128993  0.54736006    -0.16600
C1718       C  0.87778164  0.69713585  0.56803889    -0.16600
C1719       C  0.81030424  0.69234549  0.56637798    -0.16200
C1720       C  0.81493051  0.63067368  0.56596719    -0.16500
C1721       C  0.67002814  0.84152115  0.45614237     0.46200
H1722       H  0.67152312  0.84272475  0.44112827    -0.02800
C1723       C  0.66622870  0.83728681  0.49116074     0.46300
H1724       H  0.66469994  0.83588634  0.50616089    -0.02800
C1725       C  0.69270789  0.82134572  0.46427163    -0.16500
C1726       C  0.68864282  0.88329308  0.46552377    -0.16200
C1727       C  0.62581886  0.81740801  0.46288097    -0.16600
C1728       C  0.69029537  0.81817940  0.48274267    -0.16600
C1729       C  0.68746270  0.88159198  0.48410139    -0.16200
C1730       C  0.62326351  0.81523403  0.48143893    -0.16500
O1731       O  0.59087865  0.74395760  0.69840999    -0.80100
O1732       O  0.69369966  0.89007151  0.64857561    -0.64800
O1733       O  0.66314114  0.81086634  0.68534373    -1.11400
C1734       C  0.62291990  0.89572864  0.71552636     1.06800
O1735       O  0.72695668  0.93998138  0.66878861    -0.78000
O1736       O  0.72327918  0.92811739  0.70487465    -0.65600
Ni1737     Ni  0.62970069  0.75406128  0.67950497     1.34900
C1738       C  0.72072672  0.90023898  0.71500319     0.85500
O1739       O  0.70130667  0.82407002  0.65156460    -0.78600
O1740       O  0.66603557  0.75869603  0.66035804    -0.88800
C1741       C  0.71837978  0.92732585  0.65242106     0.85100
O1742       O  0.59224014  0.75716042  0.66279485    -0.67000
O1743       O  0.64856488  0.92421878  0.70548430    -0.86300
C1744       C  0.59554542  0.78509040  0.65250429     0.85900
C1745       C  0.69244194  0.78694200  0.65043989     1.07500
H1746       H  0.62912605  0.86831158  0.67592807     0.39300
O1747       O  0.65449177  0.87266409  0.68153317    -1.09000
O1748       O  0.69067658  0.86369393  0.71423985    -0.65600
Ni1749     Ni  0.63953993  0.83451080  0.70055075     1.26300
O1750       O  0.62699723  0.82077327  0.65261624    -0.65900
O1751       O  0.61600554  0.85928147  0.71500014    -0.78200
C1752       C  0.59947584  0.75674621  0.71473208     0.85300
O1753       O  0.62398323  0.79405187  0.71853249    -0.65300
Ni1754     Ni  0.68671624  0.92964493  0.68712085     1.27400
Ni1755     Ni  0.67815950  0.84919942  0.66631400     1.26100
H1756       H  0.68832808  0.81482157  0.69097942     0.39800
C1757       C  0.98181003  0.50530002  0.79164871     0.46200
H1758       H  0.98048736  0.50166279  0.77673436    -0.02800
C1759       C  0.98326359  0.50978861  0.82673982     0.46300
H1760       H  0.98440571  0.51219467  0.84173650    -0.02800
C1761       C  0.00274644  0.98516926  0.79919075    -0.16500
C1762       C  0.00150518  0.54929101  0.79892998    -0.16200
C1763       C  0.93772724  0.98496614  0.79938382    -0.16600
C1764       C  0.00417414  0.98578483  0.81774056    -0.16600
C1765       C  0.00319164  0.55192772  0.81756763    -0.16200
C1766       C  0.93859237  0.98565661  0.81796258    -0.16500
C1767       C  0.64907424  0.84325909  0.87482702     0.46200
H1768       H  0.64787896  0.84246194  0.85982056    -0.02800
C1769       C  0.65047729  0.84335364  0.91000151     0.46300
H1770       H  0.65180217  0.84395430  0.92505559    -0.02800
C1771       C  0.62759510  0.80002060  0.88283171    -0.16500
C1772       C  0.69314524  0.86534929  0.88322346    -0.16200
C1773       C  0.62755047  0.86472589  0.88358173    -0.16600
C1774       C  0.62856604  0.80027586  0.90146359    -0.16600
C1775       C  0.69332425  0.86539933  0.90177130    -0.16200
C1776       C  0.62828500  0.86430732  0.90220849    -0.16500
C1777       C  0.85743036  0.66791598  0.15851372     0.46200
H1778       H  0.85831089  0.66881665  0.17355410    -0.02800
C1779       C  0.85495648  0.66601614  0.12331649     0.46300
H1780       H  0.85327295  0.66503532  0.10827099    -0.02800
C1781       C  0.88098089  0.64832894  0.14987392    -0.16500
C1782       C  0.81324669  0.64316115  0.15027334    -0.16200
C1783       C  0.87623639  0.71069603  0.15014448    -0.16600
C1784       C  0.88002428  0.64810861  0.13124221    -0.16600
C1785       C  0.81242890  0.64199778  0.13170997    -0.16200
C1786       C  0.87477323  0.70923438  0.13152837    -0.16500
C1787       C  0.52262520  0.00252707  0.20743852     0.46200
H1788       H  0.52282495  0.00193254  0.19240248    -0.02800
C1789       C  0.52250655  0.00351577  0.24258936     0.46300
H1790       H  0.52288658  0.00514813  0.25759678    -0.02800
C1791       C  0.56768877  0.52829107  0.21515410    -0.16500
C1792       C  0.50050081  0.52418344  0.21521862    -0.16200
C1793       C  0.50344492  0.95948424  0.21576118    -0.16600
C1794       C  0.56803871  0.52826787  0.23370629    -0.16600
C1795       C  0.50129169  0.52413692  0.23385473    -0.16200
C1796       C  0.50377353  0.96034953  0.23441949    -0.16500
O1797       O  0.77464464  0.57069228  0.36403714    -0.80100
O1798       O  0.87626020  0.71168651  0.31376763    -0.64800
O1799       O  0.84791078  0.63641561  0.35202946    -1.11400
C1800       C  0.80826273  0.72305646  0.38102419     1.06800
O1801       O  0.91004010  0.76269392  0.33340518    -0.78000
O1802       O  0.90867373  0.75274122  0.36921080    -0.65600
Ni1803     Ni  0.81688673  0.57906286  0.34721636     1.34900
C1804       C  0.90543907  0.72577472  0.38007066     0.85500
O1805       O  0.88462284  0.64615811  0.31823419    -0.78600
O1806       O  0.85756364  0.58376517  0.33039589    -0.88800
C1807       C  0.90071474  0.74924537  0.31719304     0.85100
O1808       O  0.78181655  0.57756843  0.32784398    -0.67000
O1809       O  0.83482677  0.75082433  0.37095711    -0.86300
C1810       C  0.78174290  0.60536341  0.31854895     0.85900
C1811       C  0.88106940  0.61097388  0.31929950     1.07500
H1812       H  0.81325064  0.69310299  0.34146349     0.39300
O1813       O  0.83852419  0.69739605  0.34714747    -1.09000
O1814       O  0.87413636  0.68999141  0.38043094    -0.65600
Ni1815     Ni  0.82335214  0.66023049  0.36654386     1.26300
O1816       O  0.80976160  0.64261653  0.31985002    -0.65900
O1817       O  0.79952937  0.68589938  0.38047328    -0.78200
C1818       C  0.78264870  0.58266951  0.38047636     0.85300
O1819       O  0.80716867  0.61986627  0.38457231    -0.65300
Ni1820     Ni  0.87132778  0.75438316  0.35209175     1.27400
Ni1821     Ni  0.86184992  0.67268005  0.33241444     1.26100
H1822       H  0.87351670  0.64184616  0.35779327     0.39800
O1823       O  0.55454798  0.60842317  0.00319598    -0.80100
O1824       O  0.99021673  0.95042135  0.04927874    -0.64800
O1825       O  0.54029345  0.53234432  0.01480655    -1.11400
C1826       C  0.92102511  0.96354169  0.97963270     1.06800
O1827       O  0.94425031  0.90066665  0.03091286    -0.78000
O1828       O  0.98840192  0.92862972  0.00005874    -0.65600
Ni1829     Ni  0.56660877  0.58699252  0.02436308     1.34900
C1830       C  0.50983406  0.95479162  0.98773756     0.85500
O1831       O  0.56463184  0.50767364  0.04543898    -0.78600
O1832       O  0.58447980  0.57378763  0.04657497    -0.88800
C1833       C  0.96259863  0.91356993  0.04611465     0.85100
O1834       O  0.51751268  0.57914474  0.03511304    -0.67000
O1835       O  0.92508410  0.93457187  0.98548769    -0.86300
C1836       C  0.99818913  0.55246027  0.04762221     0.85900
C1837       C  0.58716936  0.54353756  0.05200318     1.07500
H1838       H  0.94608484  0.98137811  0.02486070     0.39300
O1839       O  0.96556792  0.97689795  0.01827583    -1.09000
O1840       O  0.50971076  0.98799510  0.98538456    -0.65600
Ni1841     Ni  0.99218638  0.51517028  0.00020121     1.26300
O1842       O  0.99796610  0.51886042  0.04894266    -0.65900
O1843       O  0.94192362  0.99945226  0.98624601    -0.78200
C1844       C  0.54259574  0.59535659  0.98706283     0.85300
O1845       O  0.52139906  0.55767258  0.98291429    -0.65300
Ni1846     Ni  0.93806916  0.92206648  0.00878199     1.27400
Ni1847     Ni  0.51575773  0.99446711  0.03251263     1.26100
H1848       H  0.56069484  0.52884327  0.00845116     0.39800
C1849       C  0.69935946  0.55893774  0.28718916     0.30500
C1850       C  0.66874314  0.52698771  0.27646250    -0.35800
C1851       C  0.64670154  0.53767227  0.26448826     0.16500
C1852       C  0.65379457  0.57696310  0.26329144     0.22300
C1853       C  0.68462915  0.60900802  0.27394114    -0.33900
C1854       C  0.70705360  0.59840113  0.28576535     0.16400
O1855       O  0.72393147  0.55589533  0.29917061    -0.25900
C1856       C  0.74793030  0.59397217  0.30536994     0.06200
C1857       C  0.73886603  0.62172531  0.29752045    -0.30800
O1858       O  0.62808219  0.57953247  0.25178693    -0.22700
C1859       C  0.60494004  0.54156031  0.24531841    -0.02600
C1860       C  0.61494750  0.51423889  0.25276891    -0.17100
H1861       H  0.66249266  0.49595745  0.27740736     0.20900
H1862       H  0.69060075  0.63996263  0.27312213     0.19300
H1863       H  0.75377004  0.65433855  0.30004571     0.19200
H1864       H  0.59435017  0.98067414  0.25395704     0.15100
C1865       C  0.95597743  0.86587743  0.25710357     0.30500
C1866       C  0.92911964  0.82378953  0.25961741    -0.35800
C1867       C  0.92968894  0.80955141  0.27708492     0.16500
C1868       C  0.95475941  0.83519690  0.29095790     0.22300
C1869       C  0.98163189  0.87673852  0.28838766    -0.33900
C1870       C  0.98119393  0.89069679  0.27107570     0.16400
O1871       O  0.96034752  0.88646179  0.24216599    -0.25900
C1872       C  0.98915530  0.92473028  0.24671860     0.06200
C1873       C  0.00297227  0.92877133  0.26458720    -0.30800
O1874       O  0.94874362  0.81672875  0.30645505    -0.22700
C1875       C  0.91963253  0.77849609  0.30264657    -0.02600
C1876       C  0.90662857  0.77190268  0.28451977    -0.17100
H1877       H  0.90885920  0.80380102  0.24886426     0.20900
H1878       H  0.00102179  0.89699715  0.29927558     0.19300
H1879       H  0.02608272  0.95568461  0.27193909     0.19200
H1880       H  0.88228487  0.74419232  0.27808081     0.15100
C1881       C  0.95566013  0.54377729  0.27001338     0.30500
C1882       C  0.93638761  0.53583118  0.28677162    -0.35800
C1883       C  0.92713431  0.56496281  0.29321666     0.16500
C1884       C  0.93645556  0.59983701  0.28393405     0.22300
C1885       C  0.95634282  0.60807613  0.26718516    -0.33900
C1886       C  0.96530513  0.57858064  0.26061697     0.16400
O1887       O  0.96649639  0.52020498  0.26150625    -0.25900
C1888       C  0.98295326  0.53962549  0.24628382     0.06200
C1889       C  0.98364135  0.57657187  0.24507416    -0.30800
O1890       O  0.92283057  0.62171014  0.29215391    -0.22700
C1891       C  0.90451493  0.60033520  0.30680300    -0.02600
C1892       C  0.90654065  0.56493425  0.30818256    -0.17100
H1893       H  0.92845832  0.50840493  0.29412039     0.20900
H1894       H  0.96350367  0.63506372  0.25964784     0.19300
H1895       H  0.99672408  0.59911922  0.23460723     0.19200
H1896       H  0.89331074  0.54172533  0.31838007     0.15100
C1897       C  0.94674652  0.85387952  0.08437984     0.30500
C1898       C  0.95440547  0.84325204  0.10155508    -0.35800
C1899       C  0.92654024  0.80313340  0.10684190     0.16500
C1900       C  0.89346448  0.77580139  0.09603709     0.22300
C1901       C  0.88603082  0.78622228  0.07896364    -0.33900
C1902       C  0.91382353  0.82587833  0.07367886     0.16400
O1903       O  0.96882883  0.88931761  0.07635982    -0.25900
C1904       C  0.94961571  0.88327157  0.06036106     0.06200
C1905       C  0.91531546  0.84444105  0.05805384    -0.30800
O1906       O  0.87133230  0.74006947  0.10344919    -0.22700
C1907       C  0.89001458  0.74421788  0.11934030    -0.02600
C1908       C  0.92518084  0.78264313  0.12207345    -0.17100
H1909       H  0.98027796  0.86452070  0.11009596     0.20900
H1910       H  0.86047188  0.76474873  0.07032546     0.19300
H1911       H  0.89449168  0.83163398  0.04642965     0.19200
H1912       H  0.94699394  0.79367126  0.13337957     0.15100
C1913       C  0.66788191  0.55663720  0.08115598     0.30500
C1914       C  0.70285076  0.55453216  0.08660190    -0.35800
C1915       C  0.72794948  0.58240140  0.10037386     0.16500
C1916       C  0.71869542  0.60970714  0.10847263     0.22300
C1917       C  0.68399662  0.61179490  0.10305509    -0.33900
C1918       C  0.65950542  0.58464375  0.08913946     0.16400
O1919       O  0.64194309  0.53614230  0.06752753    -0.25900
C1920       C  0.61705053  0.55165734  0.06683678     0.06200
C1921       C  0.62665982  0.58181515  0.07995552    -0.30800
O1922       O  0.74665317  0.63370060  0.12068532    -0.22700
C1923       C  0.77451506  0.62201977  0.12031870    -0.02600
C1924       C  0.76478532  0.59040360  0.10790935    -0.17100
H1925       H  0.71075126  0.53374167  0.08012992     0.20900
H1926       H  0.67731450  0.63405705  0.10887897     0.19300
H1927       H  0.61269282  0.60048713  0.08181862     0.19200
H1928       H  0.78245037  0.57577648  0.10487011     0.15100
C1929       C  0.91831934  0.59497771  0.10620176     0.30500
C1930       C  0.92570245  0.56317421  0.10154181    -0.35800
C1931       C  0.94476357  0.56665706  0.08480403     0.16500
C1932       C  0.95575608  0.59924401  0.07357361     0.22300
C1933       C  0.94828841  0.63072586  0.07817619    -0.33900
C1934       C  0.92938020  0.62722978  0.09477733     0.16400
O1935       O  0.90042107  0.59807413  0.12099957    -0.25900
C1936       C  0.90037100  0.63288500  0.11892035     0.06200
C1937       C  0.91794704  0.65209547  0.10284738    -0.30800
O1938       O  0.97455500  0.59754198  0.05896013    -0.22700
C1939       C  0.97566309  0.56331330  0.06062443    -0.02600
C1940       C  0.95742045  0.54259988  0.07643987    -0.17100
H1941       H  0.91736282  0.53768745  0.11034689     0.20900
H1942       H  0.95694335  0.65640907  0.06944920     0.19300
H1943       H  0.92130532  0.68019261  0.09772677     0.19200
H1944       H  0.95527833  0.51487329  0.08135381     0.15100
C1945       C  0.94275641  0.56407583  0.19685253     0.30500
C1946       C  0.91237800  0.57526519  0.19671411    -0.35800
C1947       C  0.91230462  0.59777888  0.18181786     0.16500
C1948       C  0.94002493  0.60833406  0.16795258     0.22300
C1949       C  0.97051299  0.59726741  0.16812158    -0.33900
C1950       C  0.97066242  0.57483640  0.18305485     0.16400
O1951       O  0.94904901  0.54386723  0.20967235    -0.25900
C1952       C  0.98159799  0.54182087  0.20412480     0.06200
C1953       C  0.49466169  0.55959773  0.18736425    -0.30800
O1954       O  0.93348632  0.62829192  0.15508616    -0.22700
C1955       C  0.90119375  0.63063058  0.16078055    -0.02600
C1956       C  0.88696458  0.61246253  0.17742080    -0.17100
H1957       H  0.89040784  0.56707080  0.20749283     0.20900
H1958       H  0.49085530  0.60379119  0.15680598     0.19300
H1959       H  0.52053576  0.56226700  0.17989140     0.19200
H1960       H  0.86074087  0.60910517  0.18483992     0.15100
C1961       C  0.73142475  0.61545723  0.18028155     0.30500
C1962       C  0.70995519  0.62123074  0.19434478    -0.35800
C1963       C  0.66871967  0.59003498  0.19636671     0.16500
C1964       C  0.64969576  0.55553956  0.18532140     0.22300
C1965       C  0.67114158  0.54980437  0.17123830    -0.33900
C1966       C  0.71243139  0.58091277  0.16926894     0.16400
O1967       O  0.76988058  0.64119298  0.17560295    -0.25900
C1968       C  0.77547761  0.62300034  0.16130728     0.06200
C1969       C  0.74091169  0.58511838  0.15697884    -0.30800
O1970       O  0.61123529  0.52980913  0.18999206    -0.22700
C1971       C  0.60574324  0.54791381  0.20434547    -0.02600
C1972       C  0.64030148  0.58571528  0.20871822    -0.17100
H1973       H  0.72437303  0.64813062  0.20310941     0.20900
H1974       H  0.65670817  0.52293190  0.16245741     0.19300
H1975       H  0.73692552  0.56406565  0.14607903     0.19200
H1976       H  0.64414604  0.60686456  0.21953190     0.15100
C1977       C  0.93253171  0.79584686  0.17955317     0.30500
C1978       C  0.96250729  0.81993701  0.19284709    -0.35800
C1979       C  0.96970831  0.85971749  0.19557906     0.16500
C1980       C  0.94893955  0.87491938  0.18590130     0.22300
C1981       C  0.91906825  0.85088892  0.17254810    -0.33900
C1982       C  0.91166929  0.81098642  0.16990099     0.16400
O1983       O  0.92168466  0.75815846  0.17446248    -0.25900
C1984       C  0.89364786  0.74901552  0.16127136     0.06200
C1985       C  0.88564617  0.78053538  0.15812163    -0.30800
O1986       O  0.95930836  0.91233256  0.19123629    -0.22700
C1987       C  0.98677408  0.92106569  0.20464643    -0.02600
C1988       C  0.49481258  0.89027952  0.20742560    -0.17100
H1989       H  0.47925675  0.80921883  0.20008141     0.20900
H1990       H  0.90245874  0.86235759  0.16487770     0.19300
H1991       H  0.86490833  0.78144447  0.14806757     0.19200
H1992       H  0.51528215  0.88916280  0.21756070     0.15100
C1993       C  0.78204986  0.88970792  0.92716279     0.30500
C1994       C  0.81113289  0.88206046  0.93527209    -0.35800
C1995       C  0.84248918  0.91434763  0.94544239     0.16500
C1996       C  0.84551093  0.95192435  0.94763314     0.22300
C1997       C  0.81664146  0.95992857  0.93913757    -0.33900
C1998       C  0.78485268  0.92729982  0.92895206     0.16400
O1999       O  0.74936737  0.86304709  0.91765240    -0.25900
C2000       C  0.73087440  0.88368883  0.91323492     0.06200
C2001       C  0.75135249  0.92380707  0.91980877    -0.30800
O2002       O  0.87525974  0.97603401  0.95936724    -0.22700
C2003       C  0.89115072  0.95324603  0.96457184    -0.02600
C2004       C  0.87216928  0.91495170  0.95613551    -0.17100
H2005       H  0.80867942  0.85245392  0.93423422     0.20900
H2006       H  0.81793241  0.98888274  0.94089018     0.19300
H2007       H  0.74273892  0.94680029  0.91806848     0.19200
H2008       H  0.87760499  0.88996063  0.95851676     0.15100
C2009       C  0.59237928  0.73313802  0.93773405     0.30500
C2010       C  0.58275233  0.72329394  0.95587724    -0.35800
C2011       C  0.57194090  0.68362670  0.96053379     0.16500
C2012       C  0.57021464  0.65517603  0.94820380     0.22300
C2013       C  0.58059110  0.66533285  0.92999891    -0.33900
C2014       C  0.59171624  0.70537915  0.92533319     0.16400
O2015       O  0.60416388  0.76887923  0.93071209    -0.25900
C2016       C  0.61131535  0.76453402  0.91348972     0.06200
C2017       C  0.60444162  0.72553657  0.90938249    -0.30800
O2018       O  0.55874333  0.61963305  0.95568804    -0.22700
C2019       C  0.55353764  0.62589986  0.97300025    -0.02600
C2020       C  0.56163900  0.66519870  0.97676679    -0.17100
H2021       H  0.58391169  0.74520871  0.96572429     0.20900
H2022       H  0.58017675  0.64368139  0.92021574     0.19300
H2023       H  0.60965568  0.71397643  0.89686101     0.19200
H2024       H  0.56006947  0.67822932  0.98964249     0.15100
C2025       C  0.58003675  0.88419972  0.93784761     0.30500
C2026       C  0.55794145  0.87519018  0.95388597    -0.35800
C2027       C  0.55183025  0.90594273  0.96097299     0.16500
C2028       C  0.56630711  0.94321845  0.95289813     0.22300
C2029       C  0.58894240  0.95247284  0.93682825    -0.33900
C2030       C  0.59501199  0.92142970  0.92965496     0.16400
O2031       O  0.58901683  0.85953974  0.92902227    -0.25900
C2032       C  0.60956827  0.88070648  0.91475630     0.06200
C2033       C  0.61480777  0.91977217  0.91452067    -0.30800
O2034       O  0.55481154  0.96645270  0.96154120    -0.22700
C2035       C  0.53306076  0.94362459  0.97533820    -0.02600
C2036       C  0.53041184  0.90583580  0.97562678    -0.17100
H2037       H  0.54587946  0.84593802  0.96029396     0.20900
H2038       H  0.60037426  0.98144683  0.93024295     0.19300
H2039       H  0.63147529  0.94361994  0.90487355     0.19200
H2040       H  0.51349061  0.88108057  0.98485084     0.15100
C2041       C  0.57041030  0.90720010  0.86590247     0.30500
C2042       C  0.54154678  0.92031237  0.86618378    -0.35800
C2043       C  0.53913878  0.93974728  0.85059315     0.16500
C2044       C  0.56334467  0.94573916  0.83572552     0.22300
C2045       C  0.59237429  0.93277423  0.83546981    -0.33900
C2046       C  0.59480855  0.91336387  0.85108834     0.16400
O2047       O  0.57803615  0.88876496  0.87909363    -0.25900
C2048       C  0.60792700  0.88320872  0.87275987     0.06200
C2049       C  0.61938836  0.89768459  0.85531301    -0.30800
O2050       O  0.55507335  0.96352563  0.82243827    -0.22700
C2051       C  0.52515886  0.96902526  0.82884871    -0.02600
C2052       C  0.51425137  0.95505299  0.84637827    -0.17100
H2053       H  0.52227298  0.91562308  0.87774488     0.20900
H2054       H  0.61152441  0.93729711  0.82387817     0.19300
H2055       H  0.64310932  0.89770897  0.84711055     0.19200
H2056       H  0.99214299  0.95678731  0.85488440     0.15100
C2057       C  0.53154236  0.63947674  0.84433547     0.30500
C2058       C  0.52520466  0.66508080  0.85607874    -0.35800
C2059       C  0.56016022  0.70319815  0.86042124     0.16500
C2060       C  0.59876972  0.71550591  0.85360909     0.22300
C2061       C  0.60509048  0.68996609  0.84179171    -0.33900
C2062       C  0.57015374  0.65173272  0.83753970     0.16400
O2063       O  0.00319255  0.60137441  0.83965659    -0.25900
C2064       C  0.52388360  0.59105699  0.82777868     0.06200
C2065       C  0.56570813  0.62026243  0.82680308    -0.30800
O2066       O  0.62740378  0.75173515  0.86005758    -0.22700
C2067       C  0.60688651  0.76257514  0.87125423    -0.02600
C2068       C  0.56492204  0.73373883  0.87189411    -0.17100
H2069       H  0.99597375  0.65333896  0.86388673     0.20900
H2070       H  0.63525272  0.69902637  0.83648273     0.19300
H2071       H  0.58915563  0.61867800  0.81902688     0.19200
H2072       H  0.54172236  0.73460056  0.88015108     0.15100
C2073       C  0.79431671  0.91229297  0.86649083     0.30500
C2074       C  0.83741748  0.92954428  0.86755937    -0.35800
C2075       C  0.85838057  0.94373472  0.85127050     0.16500
C2076       C  0.83819423  0.94104489  0.83514095     0.22300
C2077       C  0.79514800  0.92376475  0.83407766    -0.33900
C2078       C  0.77420437  0.90957713  0.85034097     0.16400
O2079       O  0.76868442  0.89716650  0.88000423    -0.25900
C2080       C  0.73153977  0.88448871  0.87250816     0.06200
C2081       C  0.73317227  0.89145924  0.85399958    -0.30800
O2082       O  0.86360902  0.95576759  0.82155502    -0.22700
C2083       C  0.90072140  0.96809156  0.82892920    -0.02600
C2084       C  0.89935566  0.96142023  0.84747713    -0.17100
H2085       H  0.85340516  0.93166906  0.88018653     0.20900
H2086       H  0.77913642  0.92143857  0.82143350     0.19300
H2087       H  0.70809802  0.88467580  0.84458192     0.19200
H2088       H  0.92307395  0.49691417  0.85619277     0.15100
C2089       C  0.84598987  0.93401715  0.77292967     0.29600
C2090       C  0.80854259  0.90113040  0.76608367    -0.35800
C2091       C  0.79049845  0.90963964  0.75121598     0.16500
C2092       C  0.80817065  0.94781077  0.74366667     0.22300
C2093       C  0.84532405  0.98052282  0.75051416    -0.33900
C2094       C  0.86316454  0.97206009  0.76531127     0.16400
O2095       O  0.86901117  0.93312751  0.78643195    -0.25900
C2096       C  0.90094160  0.97126540  0.78744699     0.06200
C2097       C  0.89879192  0.99659582  0.77465407    -0.30800
O2098       O  0.78631581  0.94924056  0.72992326    -0.22700
C2099       C  0.75410640  0.91148357  0.72850735    -0.02600
C2100       C  0.75494655  0.88543615  0.74143486    -0.17100
H2101       H  0.79460180  0.87106961  0.77185862     0.20900
H2102       H  0.85944750  0.01052324  0.74465995     0.19300
H2103       H  0.91705861  0.52832479  0.77627262     0.19200
H2104       H  0.73246682  0.85355476  0.74342897     0.15100
C2105       C  0.54944456  0.66975580  0.74063291     0.30500
C2106       C  0.52848396  0.62773581  0.74310556    -0.35800
C2107       C  0.52577565  0.61531655  0.76093859     0.16500
C2108       C  0.54195901  0.64199448  0.77554750     0.22300
C2109       C  0.56302007  0.68451472  0.77310209    -0.33900
C2110       C  0.56621129  0.69719137  0.75504942     0.16400
O2111       O  0.55768048  0.68745938  0.72488964    -0.25900
C2112       C  0.58019144  0.72693208  0.72904248     0.06200
C2113       C  0.58646997  0.73509064  0.74764164    -0.30800
O2114       O  0.53600383  0.62273030  0.79099599    -0.22700
C2115       C  0.51612183  0.58330116  0.78605259    -0.02600
C2116       C  0.00407252  0.57771889  0.76785111    -0.17100
H2117       H  0.00857368  0.60660418  0.73233822     0.20900
H2118       H  0.57669861  0.70603691  0.78435905     0.19300
H2119       H  0.60475416  0.76432651  0.75456791     0.19200
H2120       H  0.98621850  0.54977099  0.76001592     0.15100
C2121       C  0.58307422  0.94279959  0.74238269     0.30500
C2122       C  0.57803754  0.97514502  0.74799393    -0.35800
C2123       C  0.55639884  0.96924454  0.76393201     0.16500
C2124       C  0.54053149  0.93395116  0.77379315     0.22300
C2125       C  0.54540396  0.90125356  0.76809267    -0.33900
C2126       C  0.56719285  0.90716160  0.75201166     0.16400
O2127       O  0.60367261  0.94275012  0.72818407    -0.25900
C2128       C  0.60094526  0.90658576  0.72854992     0.06200
C2129       C  0.57838589  0.88283687  0.74300067    -0.30800
O2130       O  0.52059779  0.93521794  0.78816245    -0.22700
C2131       C  0.52418842  0.97185695  0.78732464    -0.02600
C2132       C  0.54603631  0.99417137  0.77256587    -0.17100
H2133       H  0.59037229  0.00311202  0.74049086     0.20900
H2134       H  0.53319396  0.87335730  0.77563428     0.19300
H2135       H  0.57246630  0.85285061  0.74665162     0.19200
H2136       H  0.55253494  0.02417955  0.76859275     0.15100
C2137       C  0.77266626  0.77462526  0.40796194     0.30500
C2138       C  0.76941924  0.80821370  0.41354350    -0.35800
C2139       C  0.74729609  0.80324053  0.42934146     0.16500
C2140       C  0.72963559  0.76774848  0.43909954     0.22300
C2141       C  0.73277946  0.73396577  0.43345282    -0.33900
C2142       C  0.75477394  0.73883571  0.41751296     0.16400
O2143       O  0.79277901  0.77316854  0.39378772    -0.25900
C2144       C  0.78764100  0.73589393  0.39409135     0.06200
C2145       C  0.76402760  0.71294544  0.40850833    -0.30800
O2146       O  0.70927239  0.76960798  0.45319426    -0.22700
C2147       C  0.71409803  0.80677321  0.45236084    -0.02600
C2148       C  0.73740516  0.82894765  0.43780189    -0.17100
H2149       H  0.78310593  0.83625750  0.40604516     0.20900
H2150       H  0.71885248  0.70583671  0.44088399     0.19300
H2151       H  0.75603191  0.68230119  0.41211872     0.19200
H2152       H  0.74496555  0.85924941  0.43378713     0.15100
C2153       C  0.53492259  0.76309802  0.43615234     0.30500
C2154       C  0.99554170  0.73066320  0.43082307    -0.35800
C2155       C  0.97739136  0.73740835  0.41550091     0.16500
C2156       C  0.49637403  0.77369820  0.40633297     0.22300
C2157       C  0.53541037  0.80587969  0.41160376    -0.33900
C2158       C  0.55362689  0.79903476  0.42672297     0.16400
O2159       O  0.55750614  0.76419036  0.45025749    -0.25900
C2160       C  0.59087294  0.80137920  0.44973396     0.06200
C2161       C  0.59014443  0.82408505  0.43530772    -0.30800
O2162       O  0.97379986  0.77396131  0.39262592    -0.22700
C2163       C  0.93980555  0.73738785  0.39295662    -0.02600
C2164       C  0.94019963  0.71319891  0.40689658    -0.17100
H2165       H  0.98025109  0.70233450  0.43809373     0.20900
H2166       H  0.55035693  0.83448230  0.40451932     0.19300
H2167       H  0.61276750  0.85499947  0.43186048     0.19200
H2168       H  0.91635963  0.68264663  0.41033142     0.15100
C2169       C  0.70548129  0.95053996  0.43052198     0.30500
C2170       C  0.70106109  0.95963585  0.41267814    -0.35800
C2171       C  0.72591187  0.49576638  0.40793927     0.16500
C2172       C  0.75780967  0.52373407  0.41910892     0.22300
C2173       C  0.75914667  0.02065484  0.43773681    -0.33900
C2174       C  0.73351500  0.97979024  0.44255690     0.16400
O2175       O  0.68629995  0.91405404  0.43736470    -0.25900
C2176       C  0.70178791  0.91935451  0.45408007     0.06200
C2177       C  0.73177604  0.95983975  0.45808013    -0.30800
O2178       O  0.78100384  0.55882630  0.41118574    -0.22700
C2179       C  0.76381281  0.55293931  0.39475439    -0.02600
C2180       C  0.72949594  0.51431098  0.39195285    -0.17100
H2181       H  0.67998812  0.93640243  0.40306836     0.20900
H2182       H  0.78180444  0.04335896  0.44707840     0.19300
H2183       H  0.75109455  0.97253400  0.47011368     0.19200
H2184       H  0.71088959  0.50138549  0.37971549     0.15100
C2185       C  0.77150081  0.74488987  0.59132543     0.30500
C2186       C  0.76775673  0.77829883  0.59716933    -0.35800
C2187       C  0.74553911  0.77278584  0.61314881     0.16500
C2188       C  0.72801917  0.73676027  0.62251968     0.22300
C2189       C  0.73181603  0.70363721  0.61673828    -0.33900
C2190       C  0.75412450  0.70923425  0.60095454     0.16400
O2191       O  0.79234303  0.74354630  0.57725492    -0.25900
C2192       C  0.78806021  0.70653165  0.57803349     0.06200
C2193       C  0.76465375  0.68404217  0.59249000    -0.30800
O2194       O  0.70800595  0.73759841  0.63685694    -0.22700
C2195       C  0.71278152  0.77472833  0.63689919    -0.02600
C2196       C  0.73604666  0.79819933  0.62249047    -0.17100
H2197       H  0.78153433  0.80665371  0.58990829     0.20900
H2198       H  0.71852711  0.67547979  0.62414095     0.19300
H2199       H  0.75756041  0.65387230  0.59649141     0.19200
H2200       H  0.74386781  0.82894511  0.61916899     0.15100
C2201       C  0.00524515  0.73926439  0.62574805     0.30500
C2202       C  0.96647468  0.70733434  0.61996718    -0.35800
C2203       C  0.94929227  0.71458235  0.60457150     0.16500
C2204       C  0.96865907  0.75069937  0.59530653     0.22300
C2205       C  0.50828528  0.78302760  0.60082041    -0.33900
C2206       C  0.52520776  0.77599326  0.61656355     0.16400
O2207       O  0.52674403  0.73872646  0.63966355    -0.25900
C2208       C  0.56133241  0.77484454  0.63959789     0.06200
C2209       C  0.56215123  0.79951400  0.62556170    -0.30800
O2210       O  0.94664329  0.75005375  0.58099543    -0.22700
C2211       C  0.91293740  0.71292667  0.58124327    -0.02600
C2212       C  0.91307926  0.68989430  0.59566228    -0.17100
H2213       H  0.95092890  0.67855772  0.62690010     0.20900
H2214       H  0.52444222  0.81132457  0.59356596     0.19300
H2215       H  0.58682646  0.82972393  0.62218515     0.19200
H2216       H  0.89005043  0.65903065  0.59898712     0.15100
C2217       C  0.79402363  0.56363503  0.60163137     0.30500
C2218       C  0.79900867  0.55405397  0.61933734    -0.35800
C2219       C  0.77148148  0.51413298  0.62449385     0.16500
C2220       C  0.74469570  0.98412053  0.61284902     0.22300
C2221       C  0.73598621  0.49507098  0.59520773    -0.33900
C2222       C  0.76363550  0.53534707  0.59003503     0.16400
O2223       O  0.81570293  0.59962142  0.59440433    -0.25900
C2224       C  0.79963006  0.59487679  0.57782693     0.06200
C2225       C  0.76656735  0.55542720  0.57436965    -0.30800
O2226       O  0.72137828  0.94933311  0.62106987    -0.22700
C2227       C  0.73753836  0.95635206  0.63779611    -0.02600
C2228       C  0.77131947  0.99535010  0.64044942    -0.17100
H2229       H  0.82233384  0.57646673  0.62856531     0.20900
H2230       H  0.71385359  0.97190258  0.58634438     0.19300
H2231       H  0.74663120  0.54361618  0.56245454     0.19200
H2232       H  0.78901715  0.00923724  0.65281385     0.15100
C2233       C  0.74817346  0.77648993  0.50060341     0.30500
C2234       C  0.77977375  0.76692378  0.50099142    -0.35800
C2235       C  0.77959548  0.74350579  0.51558410     0.16500
C2236       C  0.75035446  0.73047084  0.52890059     0.22300
C2237       C  0.71848151  0.73971621  0.52841832    -0.33900
C2238       C  0.71877383  0.76331074  0.51385287     0.16400
O2239       O  0.74257267  0.79798061  0.48819399    -0.25900
C2240       C  0.70914740  0.79873461  0.49349937     0.06200
C2241       C  0.69314584  0.77782989  0.50947171    -0.30800
O2242       O  0.75726009  0.71069542  0.54175786    -0.22700
C2243       C  0.79131827  0.71090599  0.53662072    -0.02600
C2244       C  0.80631543  0.73056495  0.52031595    -0.17100
H2245       H  0.80312487  0.77737894  0.49071694     0.20900
H2246       H  0.69547336  0.72976510  0.53883089     0.19300
H2247       H  0.66599695  0.77310766  0.51653965     0.19200
H2248       H  0.83390408  0.73610155  0.51338987     0.15100
C2249       C  0.74593277  0.96792109  0.51226134     0.30500
C2250       C  0.77891831  0.49319819  0.52429150    -0.35800
C2251       C  0.78515879  0.53275054  0.52680866     0.16500
C2252       C  0.76121934  0.54573762  0.51811822     0.22300
C2253       C  0.72892569  0.51958912  0.50609285    -0.33900
C2254       C  0.71724596  0.97782051  0.50615714     0.16400
O2255       O  0.73787434  0.93165514  0.50622910    -0.25900
C2256       C  0.70354342  0.91812563  0.49615621     0.06200
C2257       C  0.68905422  0.94538040  0.49580128    -0.30800
O2258       O  0.77063468  0.58296853  0.52335189    -0.22700
C2259       C  0.80086658  0.59399799  0.53566928    -0.02600
C2260       C  0.81159758  0.56415324  0.53813507    -0.17100
H2261       H  0.79780437  0.48336468  0.53127196     0.20900
H2262       H  0.70972383  0.52925353  0.49926884     0.19300
H2263       H  0.66316671  0.94277531  0.48801240     0.19200
H2264       H  0.83379755  0.56457144  0.54776389     0.15100
C2265       C  0.96055532  0.74718987  0.51819813     0.30500
C2266       C  0.97915410  0.76648513  0.50200919    -0.35800
C2267       C  0.52104114  0.77656846  0.49968117     0.16500
C2268       C  0.54265173  0.76851520  0.51260358     0.22300
C2269       C  0.52400505  0.74909636  0.52871490    -0.33900
C2270       C  0.98240675  0.73955350  0.53115335     0.16400
O2271       O  0.92192445  0.73397308  0.52285485    -0.25900
C2272       C  0.91906920  0.71796501  0.53911152     0.06200
C2273       C  0.95576367  0.72014937  0.54475319    -0.30800
O2274       O  0.58103648  0.78091032  0.50792005    -0.22700
C2275       C  0.58413110  0.79680604  0.49165550    -0.02600
C2276       C  0.54778164  0.79546827  0.48601661    -0.17100
H2277       H  0.96240877  0.77255337  0.49165896     0.20900
H2278       H  0.54058668  0.74256930  0.53896786     0.19300
H2279       H  0.96189907  0.70806272  0.55680814     0.19200
H2280       H  0.54189815  0.80752422  0.47388370     0.15100
loop_ 
_geom_bond_atom_site_label_1 
_geom_bond_atom_site_label_2 
_geom_bond_distance 
_geom_bond_site_symmetry_2 
_ccdc_geom_bond_type 
C1            H2   1.110       .  S
C1            C7   1.549       .  S
C1            C6   1.548       .  S
C1            C5   1.550       .  S
C3            H4   1.111       .  S
C3            C9   1.528       .  S
C3            C8   1.519       .  S
C3           C10   1.525       .  S
C5            C8   1.370       .  D
C5          C562   1.475       .  S
C6            C9   1.374       .  D
C6          C533   1.486       .  S
C7           C10   1.373       .  D
C7          C549   1.481       .  S
C8          C501   1.473       .  S
C9          C482   1.477       .  S
C10         C514   1.476       .  S
C11          H12   1.112       .  S
C11          C17   1.523       .  S
C11          C16   1.521       .  S
C11          C15   1.526       .  S
C13          H14   1.110       .  S
C13          C19   1.552       .  S
C13          C18   1.548       .  S
C13          C20   1.546       .  S
C15          C18   1.373       .  D
C15         C437   1.474       .  S
C16          C19   1.375       .  D
C16         C466   1.471       .  S
C17          C20   1.374       .  D
C17         C450   1.477       .  S
C18         C530   1.484       .  S
C19         C546   1.487       .  S
C20         C565   1.477       .  S
O21         Ni27   1.926       .  S
O21          C42   1.270       .  A
O22         Ni45   1.905       .  S
O22          C31   1.265       .  A
O23         Ni27   1.900       .  S
O23         Ni45   1.907       .  S
O23         Ni39   1.909       .  S
O23          H46   0.966       .  S
C24          O41   1.275       .  A
C24          O33   1.277       .  A
C24         C418   1.463       .  S
O25         Ni44   1.930       .  S
O25          C31   1.272       .  A
O26         Ni44   1.910       .  S
O26          C28   1.268       .  A
Ni27         O30   1.918       .  S
Ni27         O32   1.907       .  S
C28          O38   1.267       .  A
C28         C389   1.467       .  S
O29         Ni45   1.919       .  S
O29          C35   1.275       .  A
O30          C35   1.276       .  A
C31         C517   1.466       .  S
O32          C34   1.268       .  A
O33         Ni44   1.919       .  S
C34          O40   1.269       .  A
C34         C498   1.469       .  S
C35         C485   1.464       .  S
H36          O37   0.966       .  S
O37         Ni45   1.907       .  S
O37         Ni39   1.904       .  S
O37         Ni44   1.902       .  S
O38         Ni39   1.917       .  S
Ni39         O43   1.903       .  S
Ni39         O41   1.916       .  S
O40         Ni45   1.923       .  S
C42          O43   1.264       .  A
C42         C402   1.462       .  S
C47          H48   1.107       .  S
C47          C52   1.529       .  S
C47         C623   1.522   1_545  S
C47         C621   1.526   1_545  S
C49          H50   1.108       .  S
C49          C55   1.551       .  S
C49         C624   1.543   1_545  S
C49         C626   1.550   1_545  S
C51         C617   1.520       .  S
C51          C54   1.369       .  D
C51        C1561   1.473       .  S
C52          C55   1.376       .  D
C52        C1545   1.489       .  S
C53         C617   1.520       .  S
C53          C56   1.372       .  D
C53         C386   1.472       .  S
C54         C619   1.548       .  S
C54        C1481   1.479       .  S
C55        C1494   1.477       .  S
C56         C619   1.551       .  S
C56         C373   1.487       .  S
C57          H58   1.109       .  S
C57          C63   1.550       .  S
C57          C62   1.543       .  S
C57          C61   1.550       .  S
C59          H60   1.112       .  S
C59          C65   1.526       .  S
C59          C64   1.528       .  S
C59          C66   1.523       .  S
C61          C64   1.376       .  D
C61         C357   1.482       .  S
C62          C65   1.371       .  D
C62         C370   1.487       .  S
C63          C66   1.374       .  D
C63         C338   1.482       .  S
C64         C306   1.480       .  S
C65         C290   1.470       .  S
C66         C322   1.473       .  S
C67          H68   1.111       .  S
C67          C73   1.547       .  S
C67          C72   1.544       .  S
C67          C71   1.552       .  S
C69          H70   1.111       .  S
C69          C75   1.522       .  S
C69          C74   1.527       .  S
C69          C76   1.525       .  S
C71          C74   1.375       .  D
C71         C245   1.479       .  S
C72          C75   1.370       .  D
C72         C258   1.480       .  S
C73          C76   1.372       .  D
C73         C274   1.483       .  S
C74         C226   1.480       .  S
C75         C213   1.473       .  S
C76         C197   1.470       .  S
C77          H78   1.111       .  S
C77          C83   1.552       .  S
C77         C652   1.548       .  S
C77         C651   1.545       .  S
C79          H80   1.110       .  S
C79          C86   1.529       .  S
C79         C655   1.527       .  S
C79         C654   1.521       .  S
C81         C647   1.544       .  S
C81          C84   1.369       .  D
C81         C261   1.481       .  S
C82         C647   1.545   1_655  S
C82          C85   1.373       .  D
C82        C1382   1.479       .  S
C83          C86   1.376       .  D
C83        C1417   1.484   1_455  S
C84         C649   1.524       .  S
C84         C149   1.468       .  S
C85         C649   1.525   1_655  S
C85        C1318   1.476       .  S
C86        C1302   1.486   1_455  S
O87         Ni93   1.922       .  S
O87         C108   1.268       .  A
O88        Ni111   1.907       .  S
O88          C97   1.267       .  A
O89         Ni93   1.904       .  S
O89        Ni111   1.900       .  S
O89        Ni105   1.909       .  S
O89         H112   0.966       .  S
C90         O107   1.274       .  A
C90          O99   1.278       .  A
C90         C434   1.467       .  S
O91        Ni110   1.935       .  S
O91          C97   1.273       .  A
O92        Ni110   1.909       .  S
O92          C94   1.269       .  A
Ni93         O96   1.911       .  S
Ni93         O98   1.908       .  S
C94         O104   1.269       .  A
C94         C453   1.469       .  S
O95        Ni111   1.930       .  S
O95         C101   1.279       .  A
O96         C101   1.276       .  A
C97         C165   1.467       .  S
O98         C100   1.266       .  A
O99        Ni110   1.929       .  S
C100        O106   1.268       .  A
C100        C146   1.464       .  S
C101        C181   1.469       .  S
H102        O103   0.966       .  S
O103       Ni111   1.914       .  S
O103       Ni105   1.902       .  S
O103       Ni110   1.902       .  S
O104       Ni105   1.920       .  S
Ni105       O109   1.901       .  S
Ni105       O107   1.911       .  S
O106       Ni111   1.915       .  S
C108        O109   1.263       .  A
C108        C469   1.459       .  S
O113       Ni119   1.927       .  S
O113        C134   1.271   1_554  A
O114      Ni1277   1.907       .  S
O114        C123   1.266       .  A
O115       Ni119   1.914       .  S
O115       Ni707   1.908   1_545  S
O115      Ni1271   1.911   1_455  S
O115        H138   0.966       .  S
C116        O133   1.268       .  A
C116        O125   1.266       .  A
C116        C293   1.472       .  S
O117       Ni136   1.906       .  S
O117        C123   1.268       .  A
O118       Ni136   1.898   1_556  S
O118       C1260   1.272       .  A
Ni119       O122   1.934       .  S
Ni119       O124   1.895       .  S
C120        O130   1.278       .  A
C120       O1258   1.272   1_455  A
C120        C325   1.466       .  S
O121       Ni707   1.912   1_545  S
O121        C127   1.270       .  A
O122        C127   1.273       .  A
C123        C194   1.463       .  S
O124       C1266   1.266   1_455  A
O125       Ni136   1.924   1_556  S
C126        O132   1.274       .  A
C126       O1264   1.267       .  A
C126        C229   1.466       .  S
C127        C210   1.465       .  S
H128        O129   0.965       .  S
O129       Ni136   1.918       .  S
O129      Ni1277   1.938       .  S
O129       Ni701   1.912   1_554  S
O130      Ni1841   1.946   1_456  S
Ni131      O1840   1.952   1_544  S
Ni131      O1275   1.894   1_554  S
Ni131       O703   1.924   1_554  S
Ni131      O1255   1.912       .  S
Ni131       O699   1.912   1_545  S
O132      Ni1847   1.948   1_545  S
O133       Ni701   1.925       .  S
C134        O135   1.263       .  A
C134        C309   1.460       .  S
O135      Ni1271   1.896   1_456  S
Ni137      O1254   1.904   1_455  S
Ni137       O691   1.920       .  S
Ni137      O1842   1.956   1_455  S
Ni137       O685   1.905       .  S
Ni137      O1269   1.937   1_455  S
C139        C144   1.381       .  A
C139        C140   1.400       .  A
C139        O145   1.317       .  A
C140        C141   1.400       .  A
C140        H151   1.082   1_545  S
C141        C150   1.357       .  A
C141        C142   1.381       .  A
C142        C143   1.401       .  A
C142        O148   1.318       .  A
C143        C144   1.401       .  A
C143        H152   1.082       .  S
C144        C147   1.359       .  A
O145        C146   1.329       .  A
C146        C147   1.391       .  A
C147        H153   1.083       .  S
O148        C149   1.328       .  A
C149        C150   1.387       .  A
C150        H724   1.082   1_545  S
H154        C720   1.082       .  S
C155        C160   1.379       .  A
C155        C156   1.408       .  A
C155        O161   1.324       .  A
C156        C157   1.409       .  A
C156        H167   1.082       .  S
C157        C166   1.367       .  A
C157        C158   1.381       .  A
C158        C159   1.396       .  A
C158        O164   1.314       .  A
C159        C160   1.396       .  A
C159        H168   1.082       .  S
C160        C163   1.351       .  A
O161        C162   1.335       .  A
C162       C1226   1.486       .  S
C162        C163   1.389       .  A
C163        H169   1.081       .  S
O164        C165   1.327       .  A
C165        C166   1.394       .  A
C166        H170   1.082       .  S
C171        C176   1.380       .  A
C171        C172   1.398       .  A
C171        O177   1.314       .  A
C172        C173   1.398       .  A
C172        H183   1.083       .  S
C173        C182   1.354       .  A
C173        C174   1.380       .  A
C174        C175   1.406       .  A
C174        O180   1.322       .  A
C175        C176   1.405       .  A
C175        H184   1.082       .  S
C176        C179   1.364       .  A
O177        C178   1.328       .  A
C178       C1225   1.476       .  S
C178        C179   1.393       .  A
C179        H185   1.082       .  S
O180        C181   1.332       .  A
C181        C182   1.390       .  A
C182        H186   1.083       .  S
C187        C192   1.381       .  A
C187        C188   1.406       .  A
C187        O193   1.321       .  A
C188        C189   1.406       .  A
C188        H199   1.082       .  S
C189        C198   1.364       .  A
C189        C190   1.381       .  A
C190        C191   1.393       .  A
C190        O196   1.309       .  A
C191        C192   1.393       .  A
C191        H200   1.083       .  S
C192        C195   1.349       .  A
O193        C194   1.332       .  A
C194        C195   1.387       .  A
C195        H201   1.083       .  S
O196        C197   1.325       .  A
C197        C198   1.394       .  A
C198        H202   1.082       .  S
C203        C208   1.381       .  A
C203        C204   1.403       .  A
C203        O209   1.321       .  A
C204        C205   1.403       .  A
C204        H215   1.082       .  S
C205        C214   1.360       .  A
C205        C206   1.381       .  A
C206        C207   1.401       .  A
C206        O212   1.318       .  A
C207        C208   1.401       .  A
C207        H216   1.082       .  S
C208        C211   1.358       .  A
O209        C210   1.330       .  A
C210        C211   1.390       .  A
C211        H217   1.083       .  S
O212        C213   1.329       .  A
C213        C214   1.389       .  A
C214        H218   1.083       .  S
C219        C224   1.379       .  A
C219        C220   1.409       .  A
C219        O225   1.324       .  A
C220        C221   1.409       .  A
C220        H231   1.082       .  S
C221        C230   1.368       .  A
C221        C222   1.381       .  A
C222        C223   1.394       .  A
C222        O228   1.312       .  A
C223        C224   1.394       .  A
C223        H232   1.082       .  S
C224        C227   1.349       .  A
O225        C226   1.334       .  A
C226        C227   1.387       .  A
C227        H233   1.083       .  S
O228        C229   1.326       .  A
C229        C230   1.395       .  A
C230        H234   1.082       .  S
C235        C240   1.380       .  A
C235        C236   1.403       .  A
C235        O241   1.317       .  A
C236        C237   1.402       .  A
C236        H247   1.082       .  S
C237        C246   1.361       .  A
C237        C238   1.380       .  A
C238        C239   1.404       .  A
C238        O244   1.318       .  A
C239        C240   1.403       .  A
C239       H1388   1.082       .  S
C240       C1383   1.363       .  A
O241        C242   1.331       .  A
C242       C1222   1.481       .  S
C242       C1383   1.391       .  A
C243       C1380   1.363       .  A
C243       C1382   1.391       .  A
C243        H249   1.082   1_655  S
O244        C245   1.331       .  A
C245        C246   1.390       .  A
C246        H250   1.082       .  S
H248       C1379   1.082       .  S
C251        C256   1.380       .  A
C251        C252   1.405       .  A
C251        O257   1.322       .  A
C252        C253   1.405       .  A
C252        H263   1.082       .  S
C253        C262   1.360       .  A
C253        C254   1.380       .  A
C254        C255   1.402       .  A
C254        O260   1.321       .  A
C255        C256   1.402       .  A
C255        H264   1.082       .  S
C256        C259   1.357       .  A
O257        C258   1.331       .  A
C258        C259   1.392       .  A
C259        H265   1.082       .  S
O260        C261   1.329       .  A
C261        C262   1.394       .  A
C262        H266   1.081       .  S
C267        C272   1.380       .  A
C267        C268   1.404       .  A
C267        O273   1.322       .  A
C268        C269   1.404       .  A
C268       H1419   1.082       .  S
C269        C270   1.380       .  A
C269       C1418   1.360       .  A
C270        C271   1.406       .  A
C270        O276   1.323       .  A
C271        C272   1.406       .  A
C271        H280   1.082       .  S
C272        C275   1.362       .  A
O273        C274   1.330       .  A
C274        C275   1.394       .  A
C275        H281   1.082       .  S
O276        C277   1.332       .  A
C277       C1223   1.483       .  S
C277       C1418   1.392       .  A
C278       C1409   1.360       .  A
C278       C1417   1.392       .  A
C278        H282   1.082   1_655  S
H279       C1408   1.082       .  S
C283        C288   1.381       .  A
C283        C284   1.400       .  A
C283        O289   1.317       .  A
C284        C285   1.401       .  A
C284        H295   1.083       .  S
C285        C294   1.356       .  A
C285        C286   1.381       .  A
C286        C287   1.405       .  A
C286        O292   1.323       .  A
C287        C288   1.404       .  A
C287        H296   1.082       .  S
C288        C291   1.362       .  A
O289        C290   1.329       .  A
C290        C291   1.388       .  A
C291        H297   1.082       .  S
O292        C293   1.331       .  A
C293        C294   1.392       .  A
C294        H298   1.083       .  S
C299        C304   1.379       .  A
C299        C300   1.397       .  A
C299        O305   1.311       .  A
C300        C301   1.395       .  A
C300        H311   1.082       .  S
C301        C310   1.354       .  A
C301        C302   1.381       .  A
C302        C303   1.405       .  A
C302        O308   1.319       .  A
C303        C304   1.404       .  A
C303        H312   1.082       .  S
C304        C307   1.363       .  A
O305        C306   1.328       .  A
C306        C307   1.395       .  A
C307        H313   1.081       .  S
O308        C309   1.331       .  A
C309        C310   1.387       .  A
C310        H314   1.083       .  S
C315        C320   1.380       .  A
C315        C316   1.399       .  A
C315        O321   1.314       .  A
C316        C317   1.398       .  A
C316        H327   1.082       .  S
C317        C326   1.357       .  A
C317        C318   1.380       .  A
C318        C319   1.405       .  A
C318        O324   1.319       .  A
C319        C320   1.404       .  A
C319        H328   1.082       .  S
C320        C323   1.365       .  A
O321        C322   1.328       .  A
C322        C323   1.392       .  A
C323        H329   1.082       .  S
O324        C325   1.332       .  A
C325        C326   1.389       .  A
C326        H330   1.083       .  S
C331        C336   1.379       .  A
C331        C332   1.404       .  A
C331        O337   1.317       .  A
C332        C333   1.403       .  A
C332        H343   1.082       .  S
C333        C342   1.364       .  A
C333        C334   1.379       .  A
C334        C335   1.402       .  A
C334        O340   1.315       .  A
C335        C336   1.401       .  A
C335        H344   1.082       .  S
C336        C339   1.362       .  A
O337        C338   1.331       .  A
C338        C339   1.391       .  A
C339        H345   1.082       .  S
O340        C341   1.330       .  A
C341       C1194   1.481       .  S
C341        C342   1.391       .  A
C342       H1486   1.082   1_455  S
H346       C1482   1.082       .  S
C347        C352   1.380       .  A
C347        C348   1.405       .  A
C347       O1493   1.322       .  A
C348        C349   1.405       .  A
C348       H1499   1.082   1_455  S
C349        C358   1.363       .  A
C349        C350   1.380       .  A
C350        C351   1.405       .  A
C350        O356   1.322       .  A
C351        C352   1.405       .  A
C351        H360   1.082       .  S
C352        C355   1.362       .  A
O353       C1487   1.320       .  A
O353       C1494   1.330       .  A
C354       C1195   1.481       .  S
C354        C355   1.392       .  A
C354       O1493   1.331       .  A
C355        H361   1.083       .  S
O356        C357   1.331       .  A
C357        C358   1.393       .  A
C358        H362   1.082       .  S
H359       C1488   1.082       .  S
C363        C368   1.378       .  A
C363        C364   1.404       .  A
C363        O369   1.313       .  A
C364        C365   1.401       .  A
C364        H375   1.082       .  S
C365        C374   1.365       .  A
C365        C366   1.378       .  A
C366        C367   1.404       .  A
C366        O372   1.314       .  A
C367        C368   1.401       .  A
C367        H376   1.082       .  S
C368        C371   1.365       .  A
O369        C370   1.332       .  A
C370        C371   1.392       .  A
C371        H377   1.082       .  S
O372        C373   1.331       .  A
C373        C374   1.393       .  A
C374        H948   1.081       .  S
H378        C944   1.081       .  S
C379        C384   1.381       .  A
C379        C380   1.407       .  A
C379        O385   1.323       .  A
C380        C381   1.407       .  A
C380        H391   1.082       .  S
C381        C390   1.364       .  A
C381        C382   1.381       .  A
C382        C383   1.396       .  A
C382        O388   1.315       .  A
C383        C384   1.396       .  A
C383        H392   1.082       .  S
C384        C387   1.352       .  A
O385        C386   1.333       .  A
C386        C387   1.384       .  A
C387        H963   1.082       .  S
O388        C389   1.327       .  A
C389        C390   1.395       .  A
C390        H394   1.083       .  S
H393        C957   1.079   1_545  S
C395        C400   1.382       .  A
C395        C396   1.392       .  A
C395        O401   1.311       .  A
C396        C397   1.392       .  A
C396       H1547   1.083       .  S
C397        C398   1.376       .  A
C397       C1546   1.344       .  A
C398        C399   1.408       .  A
C398        O404   1.323       .  A
C399        C400   1.409       .  A
C399        H408   1.082       .  S
C400        C403   1.367       .  A
O401        C402   1.325       .  A
C402        C403   1.395       .  A
C403        H409   1.082       .  S
O404        C405   1.335       .  A
C405       C1192   1.494       .  S
C405       C1546   1.393       .  A
C406       C1537   1.344       .  A
C406       C1545   1.391       .  A
C406        H410   1.079       .  S
H407       C1536   1.083       .  S
C411        C416   1.381       .  A
C411        C412   1.395       .  A
C411        O417   1.312       .  A
C412        C413   1.395       .  A
C412        H423   1.083       .  S
C413        C422   1.351       .  A
C413        C414   1.381       .  A
C414        C415   1.407       .  A
C414        O420   1.322       .  A
C415        C416   1.406       .  A
C415        H424   1.082       .  S
C416        C419   1.366       .  A
O417        C418   1.326       .  A
C418        C419   1.394       .  A
C419        H425   1.082       .  S
O420        C421   1.332       .  A
C421       C1191   1.473       .  S
C421        C422   1.386       .  A
C422        H426   1.083       .  S
C427        C432   1.381       .  A
C427        C428   1.398       .  A
C427        O433   1.315       .  A
C428        C429   1.397       .  A
C428        H439   1.082       .  S
C429        C438   1.354       .  A
C429        C430   1.381       .  A
C430        C431   1.406       .  A
C430        O436   1.322       .  A
C431        C432   1.406       .  A
C431        H440   1.082       .  S
C432        C435   1.364       .  A
O433        C434   1.328       .  A
C434        C435   1.394       .  A
C435        H441   1.083       .  S
O436        C437   1.332       .  A
C437        C438   1.387       .  A
C438        H442   1.083       .  S
C443        C448   1.380       .  A
C443       C1584   1.407   1_455  A
C443        O449   1.324       .  A
C444        C445   1.407       .  A
C444       C1583   1.406       .  A
C444        H455   1.082       .  S
C445        C454   1.364       .  A
C445       C1586   1.381       .  A
C446        C447   1.398   1_655  A
C446       C1585   1.381       .  A
C446       O1592   1.316       .  A
C447        C448   1.398       .  A
C447        H456   1.082       .  S
C448        C451   1.353       .  A
O449        C450   1.333       .  A
C450        C451   1.387       .  A
C451        H457   1.080       .  S
O452        C453   1.328       .  A
O452       C1586   1.316       .  A
C453        C454   1.394       .  A
C454        H458   1.083       .  S
C459        C464   1.379       .  A
C459        C460   1.397       .  A
C459        O465   1.309       .  A
C460       C1031   1.395       .  A
C460        H471   1.083       .  S
C461        C470   1.353       .  A
C461        C462   1.381       .  A
C461       C1030   1.393   1_545  A
C462       C1033   1.406       .  A
C462        O468   1.318       .  A
C463        C464   1.400       .  A
C463       C1032   1.402       .  A
C463        H472   1.082       .  S
C464        C467   1.361       .  A
O465        C466   1.327       .  A
C466        C467   1.391       .  A
C467        H473   1.082       .  S
O468        C469   1.331       .  A
C469        C470   1.386       .  A
C470        H474   1.083       .  S
C475        C480   1.380       .  A
C475        C476   1.408       .  A
C475        O481   1.322       .  A
C476        C477   1.408       .  A
C476        H487   1.082       .  S
C477        C486   1.368       .  A
C477        C478   1.381       .  A
C478        C479   1.394       .  A
C478        O484   1.311       .  A
C479        C480   1.393       .  A
C479        H488   1.082       .  S
C480        C483   1.351       .  A
O481        C482   1.334       .  A
C482        C483   1.385       .  A
C483        H489   1.083       .  S
O484        C485   1.326       .  A
C485        C486   1.394       .  A
C486        H490   1.082       .  S
C491        C492   1.396       .  A
C491       C1636   1.381       .  A
C491       O1637   1.314       .  A
C492        C493   1.396       .  A
C492        H503   1.082       .  S
C493        C502   1.351       .  A
C493        C494   1.380       .  A
C494       C1635   1.407       .  A
C494        O500   1.323       .  A
C495        C496   1.408       .  A
C495       C1634   1.408   1_455  A
C495        H504   1.082       .  S
C496        C499   1.366       .  A
C496       C1631   1.381       .  A
O497        C498   1.327       .  A
O497       C1631   1.314       .  A
C498        C499   1.395       .  A
C499        H505   1.082       .  S
O500        C501   1.333       .  A
C501        C502   1.385       .  A
C502        H506   1.080       .  S
C507        C512   1.379       .  A
C507        C508   1.396       .  A
C507        O513   1.308       .  A
C508        C509   1.394       .  A
C508        H519   1.083       .  S
C509       C1088   1.356   1_545  A
C509       C1080   1.381   1_545  A
C510       C1079   1.380       .  A
C510       C1081   1.407       .  A
C510        O516   1.320       .  A
C511        C512   1.403   1_565  A
C511       C1080   1.406       .  A
C511       H1090   1.082       .  S
C512        C515   1.366       .  A
O513        C514   1.326       .  A
C514        C515   1.394       .  A
C515        H521   1.082       .  S
O516        C517   1.332       .  A
C517        C518   1.388       .  A
C518       C1079   1.356       .  A
C518        H522   1.083       .  S
H520       C1081   1.082       .  S
C523        C528   1.379       .  A
C523        C524   1.404       .  A
C523        O529   1.316       .  A
C524        C525   1.402       .  A
C524        H535   1.082       .  S
C525        C534   1.365       .  A
C525        C526   1.378       .  A
C526        C527   1.403       .  A
C526        O532   1.315       .  A
C527        C528   1.401       .  A
C527        H536   1.082       .  S
C528        C531   1.363       .  A
O529        C530   1.331       .  A
C530        C531   1.392       .  A
C531        H537   1.082       .  S
O532        C533   1.331       .  A
C533        C534   1.393       .  A
C534        H538   1.082       .  S
C539        C544   1.380       .  A
C539       C1110   1.406       .  A
C539        O545   1.324       .  A
C540        C541   1.405   1_565  A
C540       C1109   1.406       .  A
C540        H551   1.082       .  S
C541        C550   1.364       .  A
C541        C542   1.380       .  A
C542        C543   1.405       .  A
C542        O548   1.322       .  A
C543       C1114   1.405   1_545  A
C543        H552   1.082       .  S
C544        C547   1.363       .  A
C544       C1113   1.406       .  A
O545        C546   1.332       .  A
C546        C547   1.394       .  A
C547        H553   1.083       .  S
O548        C549   1.331       .  A
C549        C550   1.393       .  A
C550        H554   1.082       .  S
C555        C560   1.380       .  A
C555        C556   1.398       .  A
C555        O561   1.317       .  A
C556       C1697   1.399       .  A
C556        H567   1.082       .  S
C557        C566   1.352       .  A
C557        C558   1.380       .  A
C557       C1696   1.399   1_455  A
C558        C559   1.402       .  A
C558        O564   1.320       .  A
C559       C1700   1.403   1_455  A
C559        H568   1.082       .  S
C560        C563   1.358       .  A
C560       C1699   1.404       .  A
O561        C562   1.327       .  A
C562        C563   1.395       .  A
C563        H569   1.082       .  S
O564        C565   1.331       .  A
C565        C566   1.391       .  A
C566        H570   1.081       .  S
C571        H572   1.111       .  S
C571        C577   1.555       .  S
C571        C576   1.548       .  S
C571        C575   1.553       .  S
C573        H574   1.111       .  S
C573        C579   1.530       .  S
C573        C578   1.529       .  S
C573        C580   1.526       .  S
C575        C578   1.378       .  D
C575       C1132   1.488       .  S
C576        C579   1.371       .  D
C576       C1103   1.486       .  S
C577        C580   1.376       .  D
C577       C1119   1.487       .  S
C578       C1071   1.484       .  S
C579       C1052   1.479       .  S
C580       C1084   1.482       .  S
C581        H582   1.111       .  S
C581        C587   1.525       .  S
C581        C586   1.524       .  S
C581        C585   1.526       .  S
C583        H584   1.111       .  S
C583        C589   1.553       .  S
C583        C588   1.548       .  S
C583        C590   1.551       .  S
C585        C588   1.371       .  D
C585       C1007   1.475       .  S
C586        C589   1.375       .  D
C586       C1036   1.478       .  S
C587        C590   1.376       .  D
C587       C1020   1.476       .  S
C588       C1100   1.485       .  S
C589       C1116   1.481       .  S
C590       C1135   1.488       .  S
O591       Ni597   1.929       .  S
O591        C612   1.270       .  A
O592       Ni615   1.899       .  S
O592        C601   1.263       .  A
O593       Ni597   1.906       .  S
O593       Ni615   1.910       .  S
O593       Ni609   1.910       .  S
O593        H616   0.966       .  S
C594        O611   1.273       .  A
C594        O603   1.277       .  A
C594        C988   1.461       .  S
O595       Ni614   1.931       .  S
O595        C601   1.271       .  A
O596       Ni614   1.909       .  S
O596        C598   1.268       .  A
Ni597       O600   1.923       .  S
Ni597       O602   1.908       .  S
C598        O608   1.270       .  A
C598        C959   1.471       .  S
O599       Ni615   1.918       .  S
O599        C605   1.275       .  A
O600        C605   1.276       .  A
C601       C1087   1.462       .  S
O602        C604   1.268       .  A
O603       Ni614   1.921       .  S
C604        O610   1.269       .  A
C604       C1068   1.472       .  S
C605       C1055   1.469       .  S
H606        O607   0.966       .  S
O607       Ni615   1.908       .  S
O607       Ni609   1.905       .  S
O607       Ni614   1.906       .  S
O608       Ni609   1.925       .  S
Ni609       O613   1.903       .  S
Ni609       O611   1.910       .  S
O610       Ni615   1.926       .  S
C612        O613   1.264       .  A
C612        C972   1.463       .  S
C617        H618   1.105       .  S
C617        C622   1.532       .  S
C619        H620   1.109       .  S
C619        C625   1.552       .  S
C621        C624   1.369       .  D
C621       C2131   1.467       .  S
C622        C625   1.377       .  D
C622       C2115   1.489       .  S
C623        C626   1.373       .  D
C623        C956   1.479       .  S
C624       C2051   1.483       .  S
C625       C2064   1.480       .  S
C626        C943   1.483       .  S
C627        H628   1.108       .  S
C627        C633   1.551       .  S
C627        C632   1.545       .  S
C627        C631   1.547       .  S
C629        H630   1.112       .  S
C629        C635   1.523       .  S
C629        C634   1.533       .  S
C629        C636   1.526       .  S
C631        C634   1.376       .  D
C631        C927   1.481       .  S
C632        C635   1.371       .  D
C632        C940   1.487       .  S
C633        C636   1.377       .  D
C633        C908   1.487       .  S
C634        C876   1.486       .  S
C635        C860   1.468       .  S
C636        C892   1.476       .  S
C637        H638   1.110       .  S
C637        C643   1.545       .  S
C637        C642   1.543       .  S
C637        C641   1.552       .  S
C639        H640   1.111       .  S
C639        C645   1.524       .  S
C639        C644   1.527       .  S
C639        C646   1.532       .  S
C641        C644   1.376       .  D
C641        C815   1.480       .  S
C642        C645   1.371       .  D
C642        C828   1.481       .  S
C643        C646   1.374       .  D
C643        C844   1.489       .  S
C644        C796   1.480       .  S
C645        C783   1.474       .  S
C646        C767   1.472       .  S
C647        H648   1.111       .  S
C647        C653   1.553   1_545  S
C649        H650   1.109       .  S
C649        C656   1.531   1_545  S
C651        C654   1.369       .  D
C651        C831   1.479       .  S
C652        C655   1.376       .  D
C652       C1952   1.483   1_455  S
C653        C656   1.378       .  D
C653       C1987   1.485   1_455  S
C654        C719   1.469       .  S
C655       C1888   1.478   1_455  S
C656       C1872   1.487   1_455  S
O657       Ni663   1.923       .  S
O657        C678   1.269       .  A
O658       Ni681   1.909       .  S
O658        C667   1.266       .  A
O659       Ni663   1.905       .  S
O659       Ni681   1.899       .  S
O659       Ni675   1.911       .  S
O659        H682   0.966       .  S
C660        O677   1.276       .  A
C660        O669   1.276       .  A
C660       C1004   1.466       .  S
O661       Ni680   1.927       .  S
O661        C667   1.270       .  A
O662       Ni680   1.901       .  S
O662        C664   1.267       .  A
Ni663       O666   1.916       .  S
Ni663       O668   1.912       .  S
C664        O674   1.269       .  A
C664       C1023   1.465       .  S
O665       Ni681   1.925       .  S
O665        C671   1.278       .  A
O666        C671   1.277       .  A
C667        C735   1.465       .  S
O668        C670   1.267       .  A
O669       Ni680   1.922       .  S
C670        O676   1.266       .  A
C670        C716   1.464       .  S
C671        C751   1.468       .  S
H672        O673   0.966       .  S
O673       Ni681   1.913       .  S
O673       Ni675   1.905       .  S
O673       Ni680   1.899       .  S
O674       Ni675   1.924       .  S
Ni675       O679   1.903       .  S
Ni675       O677   1.917       .  S
O676       Ni681   1.910       .  S
C678        O679   1.265       .  A
C678       C1039   1.458       .  S
O683       Ni689   1.924       .  S
O683        C704   1.271   1_554  A
O684      Ni1847   1.909       .  S
O684        C693   1.266       .  A
O685       Ni689   1.912       .  S
O685      Ni1841   1.911   1_455  S
O685        H708   0.966       .  S
C686        O703   1.267   1_565  A
C686        O695   1.265       .  A
C686        C863   1.470       .  S
O687       Ni706   1.898       .  S
O687        C693   1.266       .  A
O688       Ni706   1.896   1_556  S
O688       C1830   1.271       .  A
Ni689       O692   1.930       .  S
Ni689       O694   1.899       .  S
C690       O1828   1.271   1_456  A
C690        O700   1.277       .  A
C690        C895   1.469       .  S
O691        C697   1.269       .  A
O692        C697   1.272       .  A
C693        C764   1.461       .  S
O694       C1836   1.267   1_455  A
O695       Ni706   1.914   1_556  S
C696       O1834   1.267       .  A
C696        O702   1.277       .  A
C696        C799   1.470       .  S
C697        C780   1.470       .  S
H698        O699   0.965       .  S
O699      Ni1847   1.934       .  S
O699       Ni706   1.915       .  S
O700      Ni1271   1.951   1_466  S
Ni701      O1270   1.948       .  S
Ni701      O1845   1.908       .  S
Ni701      O1825   1.912   1_556  S
O702      Ni1277   1.954       .  S
C704        O705   1.267       .  A
C704        C879   1.468       .  S
O705      Ni1841   1.910   1_456  S
Ni707      O1824   1.913   1_455  S
Ni707      O1272   1.947   1_465  S
Ni707      O1839   1.934   1_455  S
C709        C714   1.381       .  A
C709        C710   1.401       .  A
C709        O715   1.318       .  A
C710        C711   1.400       .  A
C710        H721   1.082       .  S
C711        C720   1.357       .  A
C711        C712   1.381       .  A
C712        C713   1.402       .  A
C712        O718   1.318       .  A
C713        C714   1.402       .  A
C713        H722   1.082       .  S
C714        C717   1.359       .  A
O715        C716   1.329       .  A
C716        C717   1.391       .  A
C717        H723   1.083       .  S
O718        C719   1.329       .  A
C719        C720   1.387       .  A
C725        C730   1.378       .  A
C725        C726   1.409       .  A
C725        O731   1.324       .  A
C726        C727   1.410       .  A
C726        H737   1.082       .  S
C727        C736   1.368       .  A
C727        C728   1.381       .  A
C728        C729   1.394       .  A
C728        O734   1.312       .  A
C729        C730   1.394       .  A
C729        H738   1.083       .  S
C730        C733   1.348       .  A
O731        C732   1.335       .  A
C732       C1796   1.487       .  S
C732        C733   1.390       .  A
C733        H739   1.081       .  S
O734        C735   1.326       .  A
C735        C736   1.395       .  A
C736        H740   1.082       .  S
C741        C746   1.380       .  A
C741        C742   1.398       .  A
C741        O747   1.313       .  A
C742        C743   1.397       .  A
C742        H753   1.083       .  S
C743        C752   1.355       .  A
C743        C744   1.380       .  A
C744        C745   1.406       .  A
C744        O750   1.321       .  A
C745        C746   1.405       .  A
C745        H754   1.082       .  S
C746        C749   1.365       .  A
O747        C748   1.329       .  A
C748       C1795   1.478       .  S
C748        C749   1.394       .  A
C749        H755   1.082       .  S
O750        C751   1.332       .  A
C751        C752   1.390       .  A
C752        H756   1.083       .  S
C757        C762   1.381       .  A
C757        C758   1.405       .  A
C757        O763   1.322       .  A
C758        C759   1.405       .  A
C758        H769   1.082       .  S
C759        C768   1.361       .  A
C759        C760   1.380       .  A
C760        C761   1.392       .  A
C760        O766   1.310       .  A
C761        C762   1.392       .  A
C761        H770   1.083       .  S
C762        C765   1.346       .  A
O763        C764   1.331       .  A
C764        C765   1.387       .  A
C765        H771   1.083       .  S
O766        C767   1.325       .  A
C767        C768   1.395       .  A
C768        H772   1.082       .  S
C773        C778   1.381       .  A
C773        C774   1.409       .  A
C773        O779   1.326       .  A
C774        C775   1.409       .  A
C774        H785   1.082       .  S
C775        C784   1.366       .  A
C775        C776   1.382       .  A
C776        C777   1.397       .  A
C776        O782   1.316       .  A
C777        C778   1.398       .  A
C777        H786   1.082       .  S
C778        C781   1.353       .  A
O779        C780   1.334       .  A
C780        C781   1.387       .  A
C781        H787   1.083       .  S
O782        C783   1.326       .  A
C783        C784   1.393       .  A
C784        H788   1.082       .  S
C789        C794   1.380       .  A
C789        C790   1.409       .  A
C789        O795   1.323       .  A
C790        C791   1.409       .  A
C790        H801   1.082       .  S
C791        C800   1.369       .  A
C791        C792   1.381       .  A
C792        C793   1.397       .  A
C792        O798   1.314       .  A
C793        C794   1.396       .  A
C793        H802   1.082       .  S
C794        C797   1.353       .  A
O795        C796   1.333       .  A
C796        C797   1.388       .  A
C797        H803   1.083       .  S
O798        C799   1.328       .  A
C799        C800   1.395       .  A
C800        H804   1.082       .  S
C805        C810   1.379       .  A
C805        C806   1.403       .  A
C805        O811   1.318       .  A
C806        C807   1.402       .  A
C806        H817   1.082       .  S
C807        C816   1.361       .  A
C807        C808   1.380       .  A
C808        C809   1.404       .  A
C808        O814   1.318       .  A
C809        C810   1.403       .  A
C809       H1958   1.082       .  S
C810       C1953   1.362       .  A
O811        C812   1.331       .  A
C812       C1792   1.484       .  S
C812       C1953   1.392       .  A
C813       C1950   1.363       .  A
C813       C1952   1.392       .  A
C813        H819   1.082   1_655  S
O814        C815   1.331       .  A
C815        C816   1.391       .  A
C816        H820   1.082       .  S
H818       C1949   1.082       .  S
C821        C826   1.380       .  A
C821        C822   1.403       .  A
C821        O827   1.321       .  A
C822        C823   1.403       .  A
C822        H833   1.082       .  S
C823        C832   1.358       .  A
C823        C824   1.380       .  A
C824        C825   1.403       .  A
C824        O830   1.321       .  A
C825        C826   1.403       .  A
C825        H834   1.082       .  S
C826        C829   1.358       .  A
O827        C828   1.330       .  A
C828        C829   1.393       .  A
C829        H835   1.082       .  S
O830        C831   1.330       .  A
C831        C832   1.392       .  A
C832        H836   1.081       .  S
C837        C842   1.380       .  A
C837        C838   1.406       .  A
C837        O843   1.323       .  A
C838        C839   1.405       .  A
C838       H1989   1.082       .  S
C839       C1988   1.363       .  A
C839        C840   1.380       .  A
C840        C841   1.406       .  A
C840        O846   1.323       .  A
C841        C842   1.406       .  A
C841        H850   1.082       .  S
C842        C845   1.364       .  A
O843        C844   1.332       .  A
C844        C845   1.395       .  A
C845        H851   1.082       .  S
O846        C847   1.332       .  A
C847       C1793   1.485       .  S
C847       C1988   1.393       .  A
C848       C1979   1.363       .  A
C848       C1987   1.393       .  A
C848        H852   1.082   1_655  S
H849       C1978   1.082       .  S
C853        C858   1.382       .  A
C853        C854   1.395       .  A
C853        O859   1.314       .  A
C854        C855   1.396       .  A
C854        H865   1.083       .  S
C855        C864   1.349       .  A
C855        C856   1.381       .  A
C856        C857   1.407       .  A
C856        O862   1.325       .  A
C857        C858   1.407       .  A
C857        H866   1.082       .  S
C858        C861   1.364       .  A
O859        C860   1.325       .  A
C860        C861   1.391       .  A
C861        H867   1.082       .  S
O862        C863   1.333       .  A
C863        C864   1.389       .  A
C864        H868   1.083       .  S
C869        C874   1.378       .  A
C869        C870   1.398       .  A
C869        O875   1.313       .  A
C870        C871   1.397       .  A
C870        H881   1.082       .  S
C871        C880   1.355       .  A
C871        C872   1.380       .  A
C872        C873   1.407       .  A
C872        O878   1.323       .  A
C873        C874   1.407       .  A
C873        H882   1.082       .  S
C874        C877   1.365       .  A
O875        C876   1.329       .  A
C876        C877   1.398       .  A
C877        H883   1.081       .  S
O878        C879   1.333       .  A
C879        C880   1.388       .  A
C880        H884   1.083       .  S
C885        C890   1.380       .  A
C885        C886   1.397       .  A
C885        O891   1.313       .  A
C886        C887   1.396       .  A
C886        H897   1.082       .  S
C887        C896   1.354       .  A
C887        C888   1.380       .  A
C888        C889   1.408       .  A
C888        O894   1.322       .  A
C889        C890   1.407       .  A
C889        H898   1.082       .  S
C890        C893   1.367       .  A
O891        C892   1.327       .  A
C892        C893   1.395       .  A
C893        H899   1.082       .  S
O894        C895   1.334       .  A
C895        C896   1.388       .  A
C896        H900   1.083       .  S
C901        C906   1.379       .  A
C901        C902   1.404       .  A
C901        O907   1.318       .  A
C902        C903   1.403       .  A
C902        H913   1.082       .  S
C903        C912   1.363       .  A
C903        C904   1.379       .  A
C904        C905   1.406       .  A
C904        O910   1.319       .  A
C905        C906   1.404       .  A
C905        H914   1.082       .  S
C906        C909   1.364       .  A
O907        C908   1.331       .  A
C908        C909   1.393       .  A
C909        H915   1.082       .  S
O910        C911   1.333       .  A
C911       C1764   1.486       .  S
C911        C912   1.392       .  A
C912       H2056   1.082   1_455  S
H916       C2052   1.082       .  S
C917        C922   1.380       .  A
C917        C918   1.405       .  A
C917       O2063   1.322       .  A
C918        C919   1.405       .  A
C918       H2069   1.082   1_455  S
C919        C928   1.363       .  A
C919        C920   1.381       .  A
C920        C921   1.405       .  A
C920        O926   1.322       .  A
C921        C922   1.405       .  A
C921        H930   1.082       .  S
C922        C925   1.362       .  A
O923       C2057   1.322       .  A
O923       C2064   1.331       .  A
C924       C1765   1.481       .  S
C924        C925   1.392       .  A
C924       O2063   1.331       .  A
C925        H931   1.083       .  S
O926        C927   1.332       .  A
C927        C928   1.392       .  A
C928        H932   1.082       .  S
H929       C2058   1.082       .  S
C933        C938   1.378       .  A
C933        C934   1.404       .  A
C933        O939   1.314       .  A
C934        C935   1.402       .  A
C934        H945   1.083       .  S
C935        C944   1.364       .  A
C935        C936   1.378       .  A
C936        C937   1.401       .  A
C936        O942   1.312       .  A
C937        C938   1.399       .  A
C937        H946   1.082       .  S
C938        C941   1.362       .  A
O939        C940   1.332       .  A
C940        C941   1.392       .  A
C941        H947   1.081       .  S
O942        C943   1.330       .  A
C943        C944   1.394       .  A
C949        C954   1.380       .  A
C949        C950   1.407       .  A
C949        O955   1.324       .  A
C950        C951   1.408       .  A
C950        H961   1.082       .  S
C951        C960   1.366       .  A
C951        C952   1.381       .  A
C952        C953   1.399       .  A
C952        O958   1.316       .  A
C953        C954   1.398       .  A
C953        H962   1.082   1_565  S
C954        C957   1.353       .  A
O955        C956   1.333       .  A
C956        C957   1.386       .  A
O958        C959   1.329       .  A
C959        C960   1.395       .  A
C960        H964   1.082       .  S
C965        C970   1.382       .  A
C965        C966   1.393       .  A
C965        O971   1.311       .  A
C966        C967   1.393       .  A
C966       H2117   1.083       .  S
C967       C2116   1.347       .  A
C967        C968   1.377       .  A
C968        C969   1.407       .  A
C968        O974   1.322       .  A
C969        C970   1.408       .  A
C969        H978   1.082       .  S
C970        C973   1.366       .  A
O971        C972   1.326       .  A
C972        C973   1.395       .  A
C973        H979   1.082       .  S
O974        C975   1.334       .  A
C975       C1762   1.489       .  S
C975       C2116   1.392       .  A
C976       C2107   1.345       .  A
C976       C2115   1.392       .  A
C976        H980   1.079       .  S
H977       C2106   1.083       .  S
C981        C986   1.382       .  A
C981        C982   1.393       .  A
C981        O987   1.311       .  A
C982        C983   1.393       .  A
C982        H993   1.083   1_565  S
C983        C992   1.348       .  A
C983        C984   1.381       .  A
C984        C985   1.406       .  A
C984        O990   1.322       .  A
C985        C986   1.406       .  A
C985        H994   1.082       .  S
C986        C989   1.364       .  A
O987        C988   1.325       .  A
C988        C989   1.394       .  A
C989        H995   1.083       .  S
O990        C991   1.332       .  A
C991       C1761   1.470       .  S
C991        C992   1.385       .  A
C992        H996   1.083   1_565  S
C997       C1002   1.381       .  A
C997        C998   1.398       .  A
C997       O1003   1.314       .  A
C998        C999   1.397       .  A
C998       H1009   1.082       .  S
C999       C1008   1.355       .  A
C999       C1000   1.380       .  A
C1000      C1001   1.406       .  A
C1000      O1006   1.320       .  A
C1001      C1002   1.405       .  A
C1001      H1010   1.082       .  S
C1002      C1005   1.365       .  A
O1003      C1004   1.328       .  A
C1004      C1005   1.393       .  A
C1005      H1011   1.082       .  S
O1006      C1007   1.332       .  A
C1007      C1008   1.388       .  A
C1008      H1012   1.083       .  S
C1013      C1018   1.380       .  A
C1013      C2154   1.405   1_455  A
C1013      O1019   1.322       .  A
C1014      C2153   1.405       .  A
C1014      C1015   1.406       .  A
C1014      H1025   1.082       .  S
C1015      C1024   1.364       .  A
C1015      C2156   1.381       .  A
C1016      C2155   1.381       .  A
C1016      C1017   1.397   1_655  A
C1016      O2162   1.314       .  A
C1017      C1018   1.397       .  A
C1017      H1026   1.083       .  S
C1018      C1021   1.352       .  A
O1019      C1020   1.332       .  A
C1020      C1021   1.388       .  A
C1021      H1027   1.080       .  S
O1022      C2156   1.314       .  A
O1022      C1023   1.327       .  A
C1023      C1024   1.393       .  A
C1024      H1028   1.082       .  S
C1029      C1034   1.379       .  A
C1029      C1030   1.395       .  A
C1029      O1035   1.307       .  A
C1030      H1041   1.083       .  S
C1031      C1040   1.356       .  A
C1031      C1032   1.381       .  A
C1032      O1038   1.316       .  A
C1033      C1034   1.404   1_545  A
C1033      H1042   1.082       .  S
C1034      C1037   1.366       .  A
O1035      C1036   1.327       .  A
C1036      C1037   1.395       .  A
C1037      H1043   1.081       .  S
O1038      C1039   1.329       .  A
C1039      C1040   1.388       .  A
C1040      H1044   1.083       .  S
C1045      C1050   1.380       .  A
C1045      C1046   1.409       .  A
C1045      O1051   1.324       .  A
C1046      C1047   1.409       .  A
C1046      H1057   1.082       .  S
C1047      C1056   1.368       .  A
C1047      C1048   1.381       .  A
C1048      C1049   1.397       .  A
C1048      O1054   1.314       .  A
C1049      C1050   1.397       .  A
C1049      H1058   1.082       .  S
C1050      C1053   1.354       .  A
O1051      C1052   1.334       .  A
C1052      C1053   1.387       .  A
C1053      H1059   1.083       .  S
O1054      C1055   1.328       .  A
C1055      C1056   1.395       .  A
C1056      H1060   1.082       .  S
C1061      C2206   1.381       .  A
C1061      C1062   1.397       .  A
C1061      O2207   1.315       .  A
C1062      C1063   1.397       .  A
C1062      H1073   1.082       .  S
C1063      C1072   1.352       .  A
C1063      C1064   1.379       .  A
C1064      C2205   1.409       .  A
C1064      O1070   1.326       .  A
C1065      C2204   1.409   1_455  A
C1065      C1066   1.410       .  A
C1065      H1074   1.082       .  S
C1066      C2201   1.381       .  A
C1066      C1069   1.368       .  A
O1067      C2201   1.316       .  A
O1067      C1068   1.328       .  A
C1068      C1069   1.396       .  A
C1069      H1075   1.082       .  S
O1070      C1071   1.335       .  A
C1071      C1072   1.388       .  A
C1072      H1076   1.080       .  S
C1077      C1082   1.379       .  A
C1077      C1078   1.398       .  A
C1077      O1083   1.311       .  A
C1078      C1079   1.396       .  A
C1078      H1089   1.083       .  S
C1080      O1086   1.318       .  A
C1081      C1082   1.405       .  A
C1082      C1085   1.367       .  A
O1083      C1084   1.328       .  A
C1084      C1085   1.395       .  A
C1085      H1091   1.082       .  S
O1086      C1087   1.332       .  A
C1087      C1088   1.387       .  A
C1088      H1092   1.083   1_565  S
C1093      C1098   1.379       .  A
C1093      C1094   1.405       .  A
C1093      O1099   1.318       .  A
C1094      C1095   1.404       .  A
C1094      H1105   1.082       .  S
C1095      C1104   1.365       .  A
C1095      C1096   1.379       .  A
C1096      C1097   1.406       .  A
C1096      O1102   1.319       .  A
C1097      C1098   1.405       .  A
C1097      H1106   1.082       .  S
C1098      C1101   1.366       .  A
O1099      C1100   1.332       .  A
C1100      C1101   1.392       .  A
C1101      H1107   1.082       .  S
O1102      C1103   1.333       .  A
C1103      C1104   1.392       .  A
C1104      H1108   1.082       .  S
C1109      C1114   1.380       .  A
C1109      O1115   1.322       .  A
C1110      C1111   1.407       .  A
C1110      H1121   1.082       .  S
C1111      C1120   1.364       .  A
C1111      C1112   1.380       .  A
C1112      C1113   1.406       .  A
C1112      O1118   1.324       .  A
C1113      H1122   1.082       .  S
C1114      C1117   1.363       .  A
O1115      C1116   1.331       .  A
C1116      C1117   1.393       .  A
C1117      H1123   1.082       .  S
O1118      C1119   1.332       .  A
C1119      C1120   1.394       .  A
C1120      H1124   1.082       .  S
C1125      C1130   1.379       .  A
C1125      C1126   1.405       .  A
C1125      O1131   1.322       .  A
C1126      C2267   1.406       .  A
C1126      H1137   1.082       .  S
C1127      C2266   1.406   1_455  A
C1127      C1136   1.361       .  A
C1127      C1128   1.379       .  A
C1128      C1129   1.402       .  A
C1128      O1134   1.320       .  A
C1129      C2270   1.403   1_455  A
C1129      H1138   1.082       .  S
C1130      C2269   1.403       .  A
C1130      C1133   1.359       .  A
O1131      C1132   1.333       .  A
C1132      C1133   1.395       .  A
C1133      H1139   1.081       .  S
O1134      C1135   1.331       .  A
C1135      C1136   1.397       .  A
C1136      H1140   1.081       .  S
C1141      H1142   1.110       .  S
C1141      C1147   1.549       .  S
C1141      C1146   1.547       .  S
C1141      C1145   1.549       .  S
C1143      H1144   1.111       .  S
C1143      C1149   1.528       .  S
C1143      C1148   1.519       .  S
C1143      C1150   1.526       .  S
C1145      C1148   1.371       .  D
C1145      C1702   1.475       .  S
C1146      C1149   1.375       .  D
C1146      C1673   1.486       .  S
C1147      C1150   1.372       .  D
C1147      C1689   1.480       .  S
C1148      C1641   1.473       .  S
C1149      C1622   1.477       .  S
C1150      C1654   1.477       .  S
C1151      H1152   1.112       .  S
C1151      C1157   1.523       .  S
C1151      C1156   1.522       .  S
C1151      C1155   1.525       .  S
C1153      H1154   1.110       .  S
C1153      C1159   1.551       .  S
C1153      C1158   1.549       .  S
C1153      C1160   1.546       .  S
C1155      C1158   1.373       .  D
C1155      C1577   1.476       .  S
C1156      C1159   1.375       .  D
C1156      C1606   1.471       .  S
C1157      C1160   1.374       .  D
C1157      C1590   1.476       .  S
C1158      C1670   1.483       .  S
C1159      C1686   1.488       .  S
C1160      C1705   1.479       .  S
O1161     Ni1167   1.930       .  S
O1161      C1182   1.271       .  A
O1162     Ni1185   1.907       .  S
O1162      C1171   1.265       .  A
O1163     Ni1167   1.902       .  S
O1163     Ni1185   1.908       .  S
O1163     Ni1179   1.908       .  S
O1163      H1186   0.966       .  S
C1164      O1181   1.275       .  A
C1164      O1173   1.276       .  A
C1164      C1558   1.463       .  S
O1165     Ni1184   1.927       .  S
O1165      C1171   1.271       .  A
O1166     Ni1184   1.910       .  S
O1166      C1168   1.268       .  A
Ni1167     O1170   1.919       .  S
Ni1167     O1172   1.907       .  S
C1168      O1178   1.266       .  A
C1168      C1529   1.465       .  S
O1169     Ni1185   1.918       .  S
O1169      C1175   1.275       .  A
O1170      C1175   1.276       .  A
C1171      C1657   1.467       .  S
O1172      C1174   1.268       .  A
O1173     Ni1184   1.916       .  S
C1174      O1180   1.268       .  A
C1174      C1638   1.467       .  S
C1175      C1625   1.464       .  S
H1176      O1177   0.966       .  S
O1177     Ni1185   1.907       .  S
O1177     Ni1179   1.902       .  S
O1177     Ni1184   1.902       .  S
O1178     Ni1179   1.913       .  S
Ni1179     O1183   1.899       .  S
Ni1179     O1181   1.917       .  S
O1180     Ni1185   1.921       .  S
C1182      O1183   1.262       .  A
C1182      C1542   1.461       .  S
C1187      H1188   1.104       .  S
C1187      C1763   1.519   1_545  S
C1187      C1192   1.530   1_655  S
C1187      C1761   1.525   1_645  S
C1189      H1190   1.108       .  S
C1189      C1195   1.554   1_655  S
C1189      C1764   1.546   1_645  S
C1189      C1766   1.551   1_545  S
C1191      C1757   1.522   1_455  S
C1191      C1194   1.370       .  D
C1192      C1195   1.379       .  D
C1193      C1757   1.520       .  S
C1193      C1196   1.370       .  D
C1193      C1526   1.471       .  S
C1194      C1759   1.547   1_455  S
C1196      C1759   1.549       .  S
C1196      C1513   1.483       .  S
C1197      H1198   1.109       .  S
C1197      C1203   1.548       .  S
C1197      C1202   1.539       .  S
C1197      C1201   1.546       .  S
C1199      H1200   1.112       .  S
C1199      C1205   1.526       .  S
C1199      C1204   1.529       .  S
C1199      C1206   1.523       .  S
C1201      C1204   1.374       .  D
C1201      C1497   1.477       .  S
C1202      C1205   1.370       .  D
C1202      C1510   1.481       .  S
C1203      C1206   1.374       .  D
C1203      C1478   1.479       .  S
C1204      C1446   1.480       .  S
C1205      C1430   1.470       .  S
C1206      C1462   1.473       .  S
C1207      H1208   1.111       .  S
C1207      C1213   1.547       .  S
C1207      C1212   1.544       .  S
C1207      C1211   1.552       .  S
C1209      H1210   1.111       .  S
C1209      C1215   1.522       .  S
C1209      C1214   1.528       .  S
C1209      C1216   1.526       .  S
C1211      C1214   1.375       .  D
C1211      C1385   1.478       .  S
C1212      C1215   1.370       .  D
C1212      C1398   1.480       .  S
C1213      C1216   1.373       .  D
C1213      C1414   1.484       .  S
C1214      C1366   1.482       .  S
C1215      C1353   1.474       .  S
C1216      C1337   1.471       .  S
C1217      H1218   1.111       .  S
C1217      C1223   1.551       .  S
C1217      C1792   1.547       .  S
C1217      C1791   1.545       .  S
C1219      H1220   1.110       .  S
C1219      C1795   1.528       .  S
C1219      C1794   1.522       .  S
C1219      C1226   1.530       .  S
C1221      C1787   1.546       .  S
C1221      C1224   1.369       .  D
C1221      C1401   1.481       .  S
C1222      C1787   1.545       .  S
C1222      C1225   1.373       .  D
C1223      C1226   1.376       .  D
C1224      C1789   1.523       .  S
C1224      C1289   1.470       .  S
C1225      C1789   1.526       .  S
O1227     Ni1233   1.921       .  S
O1227      C1248   1.268       .  A
O1228     Ni1251   1.905       .  S
O1228      C1237   1.267       .  A
O1229     Ni1233   1.903       .  S
O1229     Ni1251   1.898       .  S
O1229     Ni1245   1.911       .  S
O1229      H1252   0.966       .  S
C1230      O1247   1.275       .  A
C1230      O1239   1.278       .  A
C1230      C1574   1.469       .  S
O1231     Ni1250   1.935       .  S
O1231      C1237   1.273       .  A
O1232     Ni1250   1.909       .  S
O1232      C1234   1.269       .  A
Ni1233     O1236   1.911       .  S
Ni1233     O1238   1.909       .  S
C1234      O1244   1.269       .  A
C1234      C1593   1.470       .  S
O1235     Ni1251   1.932       .  S
O1235      C1241   1.280       .  A
O1236      C1241   1.276       .  A
C1237      C1305   1.466       .  S
O1238      C1240   1.267       .  A
O1239     Ni1250   1.931       .  S
C1240      O1246   1.268       .  A
C1240      C1286   1.466       .  S
C1241      C1321   1.470       .  S
H1242      O1243   0.966       .  S
O1243     Ni1251   1.915       .  S
O1243     Ni1245   1.902       .  S
O1243     Ni1250   1.902       .  S
O1244     Ni1245   1.922       .  S
Ni1245     O1249   1.901       .  S
Ni1245     O1247   1.913       .  S
O1246     Ni1251   1.917       .  S
C1248      O1249   1.263       .  A
C1248      C1609   1.459       .  S
O1253     Ni1259   1.928       .  S
O1253      C1274   1.271   1_554  A
O1254      C1263   1.265       .  A
O1255     Ni1259   1.915       .  S
O1255     Ni1847   1.908   1_545  S
O1255      H1278   0.966       .  S
C1256      O1273   1.268       .  A
C1256      O1265   1.267       .  A
C1256      C1433   1.471       .  S
O1257     Ni1276   1.911       .  S
O1257      C1263   1.268       .  A
O1258     Ni1276   1.899   1_556  S
Ni1259     O1262   1.935       .  S
Ni1259     O1264   1.896       .  S
C1260      O1270   1.278       .  A
C1260      C1465   1.466       .  S
O1261     Ni1847   1.914   1_545  S
O1261      C1267   1.270       .  A
O1262      C1267   1.273       .  A
C1263      C1334   1.464       .  S
O1265     Ni1276   1.926   1_556  S
C1266      O1272   1.274       .  A
C1266      C1369   1.465       .  S
C1267      C1350   1.467       .  S
H1268      O1269   0.965       .  S
O1269     Ni1841   1.915       .  S
O1269     Ni1276   1.921       .  S
Ni1271     O1843   1.924   1_544  S
Ni1271     O1839   1.914   1_545  S
O1273     Ni1841   1.924   1_556  S
C1274      O1275   1.263       .  A
C1274      C1449   1.460       .  S
Ni1277     O1831   1.920       .  S
Ni1277     O1825   1.906       .  S
C1279      C1284   1.381       .  A
C1279      C1280   1.401       .  A
C1279      O1285   1.317       .  A
C1280      C1281   1.400       .  A
C1280      H1291   1.082   1_545  S
C1281      C1290   1.358       .  A
C1281      C1282   1.381       .  A
C1282      C1283   1.402       .  A
C1282      O1288   1.318       .  A
C1283      C1284   1.402       .  A
C1283      H1292   1.082       .  S
C1284      C1287   1.360       .  A
O1285      C1286   1.330       .  A
C1286      C1287   1.391       .  A
C1287      H1293   1.083       .  S
O1288      C1289   1.329       .  A
C1289      C1290   1.387       .  A
C1290      H1864   1.082   1_545  S
H1294      C1860   1.082       .  S
C1295      C1300   1.378       .  A
C1295      C1296   1.408       .  A
C1295      O1301   1.324       .  A
C1296      C1297   1.409       .  A
C1296      H1307   1.082       .  S
C1297      C1306   1.366       .  A
C1297      C1298   1.381       .  A
C1298      C1299   1.395       .  A
C1298      O1304   1.314       .  A
C1299      C1300   1.395       .  A
C1299      H1308   1.082   1_655  S
C1300      C1303   1.349   1_655  A
O1301      C1302   1.335       .  A
C1302      C1303   1.389   1_655  A
C1303      H1309   1.081       .  S
O1304      C1305   1.327       .  A
C1305      C1306   1.394       .  A
C1306      H1310   1.082       .  S
C1311      C1316   1.380       .  A
C1311      C1312   1.398       .  A
C1311      O1317   1.314       .  A
C1312      C1313   1.398       .  A
C1312      H1323   1.083       .  S
C1313      C1322   1.354       .  A
C1313      C1314   1.380       .  A
C1314      C1315   1.406       .  A
C1314      O1320   1.322       .  A
C1315      C1316   1.405       .  A
C1315      H1324   1.082       .  S
C1316      C1319   1.364       .  A
O1317      C1318   1.328       .  A
C1318      C1319   1.393       .  A
C1319      H1325   1.082       .  S
O1320      C1321   1.332       .  A
C1321      C1322   1.391       .  A
C1322      H1326   1.083       .  S
C1327      C1332   1.381       .  A
C1327      C1328   1.407       .  A
C1327      O1333   1.321       .  A
C1328      C1329   1.406       .  A
C1328      H1339   1.082       .  S
C1329      C1338   1.365       .  A
C1329      C1330   1.381       .  A
C1330      C1331   1.394       .  A
C1330      O1336   1.310       .  A
C1331      C1332   1.393       .  A
C1331      H1340   1.082       .  S
C1332      C1335   1.351       .  A
O1333      C1334   1.332       .  A
C1334      C1335   1.387       .  A
C1335      H1341   1.083       .  S
O1336      C1337   1.325       .  A
C1337      C1338   1.395       .  A
C1338      H1342   1.082       .  S
C1343      C1348   1.381       .  A
C1343      C1344   1.404       .  A
C1343      O1349   1.322       .  A
C1344      C1345   1.404       .  A
C1344      H1355   1.082       .  S
C1345      C1354   1.361       .  A
C1345      C1346   1.381       .  A
C1346      C1347   1.401       .  A
C1346      O1352   1.319       .  A
C1347      C1348   1.402       .  A
C1347      H1356   1.082       .  S
C1348      C1351   1.358       .  A
O1349      C1350   1.331       .  A
C1350      C1351   1.390       .  A
C1351      H1357   1.083       .  S
O1352      C1353   1.329       .  A
C1353      C1354   1.389       .  A
C1354      H1358   1.083       .  S
C1359      C1364   1.379       .  A
C1359      C1360   1.409       .  A
C1359      O1365   1.324       .  A
C1360      C1361   1.409       .  A
C1360      H1371   1.082       .  S
C1361      C1370   1.368       .  A
C1361      C1362   1.381       .  A
C1362      C1363   1.394       .  A
C1362      O1368   1.312       .  A
C1363      C1364   1.394       .  A
C1363      H1372   1.082       .  S
C1364      C1367   1.349       .  A
O1365      C1366   1.335       .  A
C1366      C1367   1.387       .  A
C1367      H1373   1.083       .  S
O1368      C1369   1.326       .  A
C1369      C1370   1.395       .  A
C1370      H1374   1.082       .  S
C1375      C1380   1.380       .  A
C1375      C1376   1.402       .  A
C1375      O1381   1.316       .  A
C1376      C1377   1.401       .  A
C1376      H1387   1.082       .  S
C1377      C1386   1.361       .  A
C1377      C1378   1.380       .  A
C1378      C1379   1.404       .  A
C1378      O1384   1.318       .  A
C1379      C1380   1.403       .  A
O1381      C1382   1.330       .  A
C1383      H1389   1.082       .  S
O1384      C1385   1.331       .  A
C1385      C1386   1.390       .  A
C1386      H1390   1.082       .  S
C1391      C1396   1.380       .  A
C1391      C1392   1.404       .  A
C1391      O1397   1.322       .  A
C1392      C1393   1.405       .  A
C1392      H1403   1.082       .  S
C1393      C1402   1.359       .  A
C1393      C1394   1.380       .  A
C1394      C1395   1.401       .  A
C1394      O1400   1.321       .  A
C1395      C1396   1.402       .  A
C1395      H1404   1.082       .  S
C1396      C1399   1.357       .  A
O1397      C1398   1.331       .  A
C1398      C1399   1.391       .  A
C1399      H1405   1.082       .  S
O1400      C1401   1.329       .  A
C1401      C1402   1.394       .  A
C1402      H1406   1.081       .  S
C1407      C1412   1.380       .  A
C1407      C1408   1.404       .  A
C1407      O1413   1.322       .  A
C1408      C1409   1.404       .  A
C1409      C1410   1.380       .  A
C1410      C1411   1.405       .  A
C1410      O1416   1.323       .  A
C1411      C1412   1.406       .  A
C1411      H1420   1.082       .  S
C1412      C1415   1.362       .  A
O1413      C1414   1.331       .  A
C1414      C1415   1.394       .  A
C1415      H1421   1.082       .  S
O1416      C1417   1.332       .  A
C1418      H1422   1.082       .  S
C1423      C1428   1.381       .  A
C1423      C1424   1.401       .  A
C1423      O1429   1.318       .  A
C1424      C1425   1.402       .  A
C1424      H1435   1.083       .  S
C1425      C1434   1.358       .  A
C1425      C1426   1.381       .  A
C1426      C1427   1.404       .  A
C1426      O1432   1.322       .  A
C1427      C1428   1.403       .  A
C1427      H1436   1.082       .  S
C1428      C1431   1.361       .  A
O1429      C1430   1.329       .  A
C1430      C1431   1.388       .  A
C1431      H1437   1.082       .  S
O1432      C1433   1.331       .  A
C1433      C1434   1.392       .  A
C1434      H1438   1.083       .  S
C1439      C1444   1.379       .  A
C1439      C1440   1.396       .  A
C1439      O1445   1.310       .  A
C1440      C1441   1.394       .  A
C1440      H1451   1.082       .  S
C1441      C1450   1.354       .  A
C1441      C1442   1.381       .  A
C1442      C1443   1.406       .  A
C1442      O1448   1.319       .  A
C1443      C1444   1.404       .  A
C1443      H1452   1.082       .  S
C1444      C1447   1.364       .  A
O1445      C1446   1.327       .  A
C1446      C1447   1.396       .  A
C1447      H1453   1.081       .  S
O1448      C1449   1.331       .  A
C1449      C1450   1.386       .  A
C1450      H1454   1.083       .  S
C1455      C1460   1.380       .  A
C1455      C1456   1.399       .  A
C1455      O1461   1.313       .  A
C1456      C1457   1.397       .  A
C1456      H1467   1.082       .  S
C1457      C1466   1.357       .  A
C1457      C1458   1.380       .  A
C1458      C1459   1.406       .  A
C1458      O1464   1.319       .  A
C1459      C1460   1.404       .  A
C1459      H1468   1.082       .  S
C1460      C1463   1.365       .  A
O1461      C1462   1.328       .  A
C1462      C1463   1.393       .  A
C1463      H1469   1.082       .  S
O1464      C1465   1.332       .  A
C1465      C1466   1.389       .  A
C1466      H1470   1.083       .  S
C1471      C1476   1.379       .  A
C1471      C1472   1.403       .  A
C1471      O1477   1.316       .  A
C1472      C1473   1.401       .  A
C1472      H1483   1.082       .  S
C1473      C1482   1.363       .  A
C1473      C1474   1.380       .  A
C1474      C1475   1.403       .  A
C1474      O1480   1.315       .  A
C1475      C1476   1.401       .  A
C1475      H1484   1.082       .  S
C1476      C1479   1.361       .  A
O1477      C1478   1.330       .  A
C1478      C1479   1.391       .  A
C1479      H1485   1.082       .  S
O1480      C1481   1.331       .  A
C1481      C1482   1.390       .  A
C1487      C1492   1.381       .  A
C1487      C1488   1.404       .  A
C1488      C1489   1.404       .  A
C1489      C1498   1.362       .  A
C1489      C1490   1.381       .  A
C1490      C1491   1.404       .  A
C1490      O1496   1.321       .  A
C1491      C1492   1.404       .  A
C1491      H1500   1.082       .  S
C1492      C1495   1.361       .  A
C1494      C1495   1.391       .  A
C1495      H1501   1.083       .  S
O1496      C1497   1.331       .  A
C1497      C1498   1.392       .  A
C1498      H1502   1.082       .  S
C1503      C1508   1.379       .  A
C1503      C1504   1.402       .  A
C1503      O1509   1.312       .  A
C1504      C1505   1.400       .  A
C1504      H1515   1.082       .  S
C1505      C1514   1.363       .  A
C1505      C1506   1.378       .  A
C1506      C1507   1.402       .  A
C1506      O1512   1.313       .  A
C1507      C1508   1.399       .  A
C1507      H1516   1.082       .  S
C1508      C1511   1.363       .  A
O1509      C1510   1.330       .  A
C1510      C1511   1.391       .  A
C1511      H1517   1.082       .  S
O1512      C1513   1.331       .  A
C1513      C1514   1.392       .  A
C1514      H2088   1.082       .  S
H1518      C2084   1.082       .  S
C1519      C1524   1.381       .  A
C1519      C1520   1.406       .  A
C1519      O1525   1.322       .  A
C1520      C1521   1.406       .  A
C1520      H1531   1.082       .  S
C1521      C1530   1.363       .  A
C1521      C1522   1.381       .  A
C1522      C1523   1.396       .  A
C1522      O1528   1.315       .  A
C1523      C1524   1.396       .  A
C1523      H1532   1.082       .  S
C1524      C1527   1.352       .  A
O1525      C1526   1.332       .  A
C1526      C1527   1.384       .  A
C1527      H2103   1.082       .  S
O1528      C1529   1.327       .  A
C1529      C1530   1.394       .  A
C1530      H1534   1.083       .  S
H1533      C2097   1.080   1_545  S
C1535      C1540   1.382       .  A
C1535      C1536   1.391       .  A
C1535      O1541   1.311       .  A
C1536      C1537   1.392       .  A
C1537      C1538   1.377       .  A
C1538      C1539   1.408       .  A
C1538      O1544   1.323       .  A
C1539      C1540   1.409       .  A
C1539      H1548   1.082       .  S
C1540      C1543   1.366       .  A
O1541      C1542   1.324       .  A
C1542      C1543   1.395       .  A
C1543      H1549   1.082       .  S
O1544      C1545   1.334       .  A
C1546      H1550   1.079   1_455  S
C1551      C1556   1.381       .  A
C1551      C1552   1.395       .  A
C1551      O1557   1.311       .  A
C1552      C1553   1.394       .  A
C1552      H1563   1.083       .  S
C1553      C1562   1.351       .  A
C1553      C1554   1.381       .  A
C1554      C1555   1.407       .  A
C1554      O1560   1.322       .  A
C1555      C1556   1.407       .  A
C1555      H1564   1.082       .  S
C1556      C1559   1.366       .  A
O1557      C1558   1.326       .  A
C1558      C1559   1.394       .  A
C1559      H1565   1.082       .  S
O1560      C1561   1.332       .  A
C1561      C1562   1.385       .  A
C1562      H1566   1.083       .  S
C1567      C1572   1.381       .  A
C1567      C1568   1.399       .  A
C1567      O1573   1.316       .  A
C1568      C1569   1.398       .  A
C1568      H1579   1.082       .  S
C1569      C1578   1.355       .  A
C1569      C1570   1.381       .  A
C1570      C1571   1.406       .  A
C1570      O1576   1.322       .  A
C1571      C1572   1.406       .  A
C1571      H1580   1.082       .  S
C1572      C1575   1.364       .  A
O1573      C1574   1.329       .  A
C1574      C1575   1.394       .  A
C1575      H1581   1.082       .  S
O1576      C1577   1.332       .  A
C1577      C1578   1.387       .  A
C1578      H1582   1.083       .  S
C1583      C1588   1.381       .  A
C1583      O1589   1.323       .  A
C1584      C1585   1.407       .  A
C1584      H1595   1.082       .  S
C1585      C1594   1.365       .  A
C1586      C1587   1.398       .  A
C1587      C1588   1.398       .  A
C1587      H1596   1.082       .  S
C1588      C1591   1.353       .  A
O1589      C1590   1.332       .  A
C1590      C1591   1.387       .  A
C1591      H1597   1.081       .  S
O1592      C1593   1.328       .  A
C1593      C1594   1.395       .  A
C1594      H1598   1.082       .  S
C1599      C1604   1.379       .  A
C1599      C1600   1.396       .  A
C1599      O1605   1.309       .  A
C1600      C2171   1.395       .  A
C1600      H1611   1.083       .  S
C1601      C2170   1.393   1_545  A
C1601      C1610   1.354       .  A
C1601      C1602   1.381       .  A
C1602      C2173   1.405       .  A
C1602      O1608   1.318       .  A
C1603      C2172   1.402       .  A
C1603      C1604   1.400       .  A
C1603      H1612   1.082       .  S
C1604      C1607   1.361       .  A
O1605      C1606   1.327       .  A
C1606      C1607   1.391       .  A
C1607      H1613   1.082       .  S
O1608      C1609   1.331       .  A
C1609      C1610   1.386       .  A
C1610      H1614   1.083       .  S
C1615      C1620   1.380       .  A
C1615      C1616   1.408       .  A
C1615      O1621   1.322       .  A
C1616      C1617   1.407       .  A
C1616      H1627   1.082       .  S
C1617      C1626   1.368       .  A
C1617      C1618   1.381       .  A
C1618      C1619   1.395       .  A
C1618      O1624   1.311       .  A
C1619      C1620   1.393       .  A
C1619      H1628   1.082       .  S
C1620      C1623   1.351       .  A
O1621      C1622   1.334       .  A
C1622      C1623   1.386       .  A
C1623      H1629   1.083       .  S
O1624      C1625   1.326       .  A
C1625      C1626   1.394       .  A
C1626      H1630   1.082       .  S
C1631      C1632   1.396   1_455  A
C1632      C1633   1.396       .  A
C1632      H1643   1.082       .  S
C1633      C1642   1.351       .  A
C1633      C1634   1.380       .  A
C1634      O1640   1.324       .  A
C1635      C1636   1.407       .  A
C1635      H1644   1.082       .  S
C1636      C1639   1.365       .  A
O1637      C1638   1.327       .  A
C1638      C1639   1.394       .  A
C1639      H1645   1.082       .  S
O1640      C1641   1.333       .  A
C1641      C1642   1.385       .  A
C1642      H1646   1.081       .  S
C1647      C1652   1.379       .  A
C1647      C1648   1.396       .  A
C1647      O1653   1.309       .  A
C1648      C1649   1.394       .  A
C1648      H1659   1.083       .  S
C1649      C2228   1.356   1_545  A
C1649      C2220   1.381   1_545  A
C1650      C2219   1.380       .  A
C1650      C2221   1.408       .  A
C1650      O1656   1.321       .  A
C1651      C2220   1.407       .  A
C1651      C1652   1.405   1_565  A
C1651      H2230   1.082       .  S
C1652      C1655   1.367       .  A
O1653      C1654   1.326       .  A
C1654      C1655   1.395       .  A
C1655      H1661   1.081       .  S
O1656      C1657   1.333       .  A
C1657      C1658   1.388       .  A
C1658      C2219   1.356       .  A
C1658      H1662   1.083       .  S
H1660      C2221   1.082       .  S
C1663      C1668   1.379       .  A
C1663      C1664   1.405       .  A
C1663      O1669   1.316       .  A
C1664      C1665   1.403       .  A
C1664      H1675   1.082       .  S
C1665      C1674   1.365       .  A
C1665      C1666   1.378       .  A
C1666      C1667   1.401       .  A
C1666      O1672   1.313       .  A
C1667      C1668   1.399       .  A
C1667      H1676   1.082       .  S
C1668      C1671   1.361       .  A
O1669      C1670   1.332       .  A
C1670      C1671   1.391       .  A
C1671      H1677   1.082       .  S
O1672      C1673   1.329       .  A
C1673      C1674   1.394       .  A
C1674      H1678   1.082       .  S
C1679      C1684   1.380       .  A
C1679      C2250   1.407       .  A
C1679      O1685   1.325       .  A
C1680      C2249   1.406       .  A
C1680      C1681   1.406   1_565  A
C1680      H1691   1.082       .  S
C1681      C1690   1.364       .  A
C1681      C1682   1.380       .  A
C1682      C1683   1.405       .  A
C1682      O1688   1.321       .  A
C1683      C2254   1.404   1_545  A
C1683      H1692   1.082       .  S
C1684      C2253   1.406       .  A
C1684      C1687   1.363       .  A
O1685      C1686   1.333       .  A
C1686      C1687   1.394       .  A
C1687      H1693   1.083       .  S
O1688      C1689   1.331       .  A
C1689      C1690   1.393       .  A
C1690      H1694   1.082       .  S
C1695      C1700   1.380       .  A
C1695      C1696   1.398       .  A
C1695      O1701   1.317       .  A
C1696      H1707   1.082       .  S
C1697      C1706   1.352       .  A
C1697      C1698   1.379       .  A
C1698      C1699   1.403       .  A
C1698      O1704   1.320       .  A
C1699      H1708   1.082       .  S
C1700      C1703   1.357       .  A
O1701      C1702   1.328       .  A
C1702      C1703   1.394       .  A
C1703      H1709   1.082       .  S
O1704      C1705   1.331       .  A
C1705      C1706   1.391       .  A
C1706      H1710   1.081       .  S
C1711      H1712   1.111       .  S
C1711      C1717   1.556       .  S
C1711      C1716   1.549       .  S
C1711      C1715   1.553       .  S
C1713      H1714   1.111       .  S
C1713      C1719   1.530       .  S
C1713      C1718   1.529       .  S
C1713      C1720   1.527       .  S
C1715      C1718   1.378       .  D
C1715      C2272   1.489       .  S
C1716      C1719   1.371       .  D
C1716      C2243   1.486       .  S
C1717      C1720   1.376       .  D
C1717      C2259   1.488       .  S
C1718      C2211   1.484       .  S
C1719      C2192   1.480       .  S
C1720      C2224   1.482       .  S
C1721      H1722   1.111       .  S
C1721      C1727   1.526       .  S
C1721      C1726   1.525       .  S
C1721      C1725   1.527       .  S
C1723      H1724   1.111       .  S
C1723      C1729   1.553       .  S
C1723      C1728   1.547       .  S
C1723      C1730   1.551       .  S
C1725      C1728   1.371       .  D
C1725      C2147   1.476       .  S
C1726      C1729   1.375       .  D
C1726      C2176   1.479       .  S
C1727      C1730   1.376       .  D
C1727      C2160   1.476       .  S
C1728      C2240   1.485       .  S
C1729      C2256   1.480       .  S
C1730      C2275   1.487       .  S
O1731     Ni1737   1.927       .  S
O1731      C1752   1.269       .  A
O1732     Ni1755   1.902       .  S
O1732      C1741   1.264       .  A
O1733     Ni1737   1.907       .  S
O1733     Ni1755   1.910       .  S
O1733     Ni1749   1.912       .  S
O1733      H1756   0.966       .  S
C1734      O1751   1.273       .  A
C1734      O1743   1.276       .  A
C1734      C2128   1.459       .  S
O1735     Ni1754   1.930       .  S
O1735      C1741   1.271       .  A
O1736     Ni1754   1.909       .  S
O1736      C1738   1.268       .  A
Ni1737     O1740   1.923       .  S
Ni1737     O1742   1.908       .  S
C1738      O1748   1.270       .  A
C1738      C2099   1.471       .  S
O1739     Ni1755   1.921       .  S
O1739      C1745   1.276       .  A
O1740      C1745   1.276       .  A
C1741      C2227   1.464       .  S
O1742      C1744   1.268       .  A
O1743     Ni1754   1.919       .  S
C1744      O1750   1.268       .  A
C1744      C2208   1.471       .  S
C1745      C2195   1.471       .  S
H1746      O1747   0.966       .  S
O1747     Ni1755   1.910       .  S
O1747     Ni1749   1.906       .  S
O1747     Ni1754   1.906       .  S
O1748     Ni1749   1.924       .  S
Ni1749     O1753   1.904       .  S
Ni1749     O1751   1.909       .  S
O1750     Ni1755   1.924       .  S
C1752      O1753   1.263       .  A
C1752      C2112   1.463       .  S
C1757      H1758   1.106       .  S
C1757      C1762   1.531   1_655  S
C1759      H1760   1.109       .  S
C1759      C1765   1.551   1_655  S
C1761      C1764   1.370       .  D
C1762      C1765   1.377       .  D
C1763      C1766   1.372       .  D
C1763      C2096   1.478       .  S
C1766      C2083   1.483       .  S
C1767      H1768   1.108       .  S
C1767      C1773   1.550       .  S
C1767      C1772   1.542       .  S
C1767      C1771   1.546       .  S
C1769      H1770   1.112       .  S
C1769      C1775   1.525       .  S
C1769      C1774   1.533       .  S
C1769      C1776   1.526       .  S
C1771      C1774   1.376       .  D
C1771      C2067   1.481       .  S
C1772      C1775   1.370       .  D
C1772      C2080   1.486       .  S
C1773      C1776   1.376       .  D
C1773      C2048   1.482       .  S
C1774      C2016   1.484       .  S
C1775      C2000   1.466       .  S
C1776      C2032   1.478       .  S
C1777      H1778   1.111       .  S
C1777      C1783   1.547       .  S
C1777      C1782   1.544       .  S
C1777      C1781   1.552       .  S
C1779      H1780   1.111       .  S
C1779      C1785   1.524       .  S
C1779      C1784   1.528       .  S
C1779      C1786   1.531       .  S
C1781      C1784   1.376       .  D
C1781      C1955   1.480       .  S
C1782      C1785   1.371       .  D
C1782      C1968   1.483       .  S
C1783      C1786   1.375       .  D
C1783      C1984   1.489       .  S
C1784      C1936   1.482       .  S
C1785      C1923   1.473       .  S
C1786      C1907   1.474       .  S
C1787      H1788   1.111       .  S
C1787      C1793   1.553   1_545  S
C1789      H1790   1.109       .  S
C1789      C1796   1.531   1_545  S
C1791      C1794   1.370       .  D
C1791      C1971   1.481       .  S
C1792      C1795   1.376       .  D
C1793      C1796   1.378       .  D
C1794      C1859   1.470       .  S
O1797     Ni1803   1.924       .  S
O1797      C1818   1.269       .  A
O1798     Ni1821   1.908       .  S
O1798      C1807   1.265       .  A
O1799     Ni1803   1.905       .  S
O1799     Ni1821   1.899       .  S
O1799     Ni1815   1.913       .  S
O1799      H1822   0.966       .  S
C1800      O1817   1.277       .  A
C1800      O1809   1.277       .  A
C1800      C2144   1.468       .  S
O1801     Ni1820   1.925       .  S
O1801      C1807   1.269       .  A
O1802     Ni1820   1.901       .  S
O1802      C1804   1.266       .  A
Ni1803     O1806   1.918       .  S
Ni1803     O1808   1.913       .  S
C1804      O1814   1.269       .  A
C1804      C2163   1.465       .  S
O1805     Ni1821   1.926       .  S
O1805      C1811   1.278       .  A
O1806      C1811   1.277       .  A
C1807      C1875   1.463       .  S
O1808      C1810   1.267       .  A
O1809     Ni1820   1.923       .  S
C1810      O1816   1.266       .  A
C1810      C1856   1.465       .  S
C1811      C1891   1.469       .  S
H1812      O1813   0.966       .  S
O1813     Ni1821   1.913       .  S
O1813     Ni1815   1.903       .  S
O1813     Ni1820   1.899       .  S
O1814     Ni1815   1.924       .  S
Ni1815     O1819   1.902       .  S
Ni1815     O1817   1.920       .  S
O1816     Ni1821   1.911       .  S
C1818      O1819   1.265       .  A
C1818      C2179   1.458       .  S
O1823     Ni1829   1.923       .  S
O1823      C1844   1.271   1_554  A
O1824      C1833   1.267       .  A
O1825     Ni1829   1.911       .  S
O1825      H1848   0.966       .  S
C1826      O1843   1.267       .  A
C1826      O1835   1.265       .  A
C1826      C2003   1.470       .  S
O1827     Ni1846   1.897       .  S
O1827      C1833   1.265       .  A
O1828     Ni1846   1.897       .  S
Ni1829     O1832   1.930       .  S
Ni1829     O1834   1.896       .  S
C1830      O1840   1.277       .  A
C1830      C2035   1.470       .  S
O1831      C1837   1.270       .  A
O1832      C1837   1.272       .  A
C1833      C1904   1.464       .  S
O1835     Ni1846   1.912   1_556  S
C1836      O1842   1.277       .  A
C1836      C1939   1.473       .  S
C1837      C1920   1.471       .  S
H1838      O1839   0.965       .  S
O1839     Ni1846   1.914       .  S
C1844      O1845   1.267       .  A
C1844      C2019   1.466       .  S
C1849      C1854   1.381       .  A
C1849      C1850   1.401       .  A
C1849      O1855   1.318       .  A
C1850      C1851   1.401       .  A
C1850      H1861   1.082       .  S
C1851      C1860   1.358       .  A
C1851      C1852   1.381       .  A
C1852      C1853   1.402       .  A
C1852      O1858   1.319       .  A
C1853      C1854   1.402       .  A
C1853      H1862   1.082       .  S
C1854      C1857   1.359       .  A
O1855      C1856   1.329       .  A
C1856      C1857   1.391       .  A
C1857      H1863   1.083       .  S
O1858      C1859   1.329       .  A
C1859      C1860   1.387       .  A
C1865      C1870   1.378       .  A
C1865      C1866   1.409       .  A
C1865      O1871   1.323       .  A
C1866      C1867   1.409       .  A
C1866      H1877   1.082       .  S
C1867      C1876   1.368       .  A
C1867      C1868   1.381       .  A
C1868      C1869   1.394       .  A
C1868      O1874   1.311       .  A
C1869      C1870   1.393       .  A
C1869      H1878   1.083   1_655  S
C1870      C1873   1.348   1_655  A
O1871      C1872   1.335       .  A
C1872      C1873   1.390   1_655  A
C1873      H1879   1.081       .  S
O1874      C1875   1.325       .  A
C1875      C1876   1.395       .  A
C1876      H1880   1.082       .  S
C1881      C1886   1.380       .  A
C1881      C1882   1.398       .  A
C1881      O1887   1.313       .  A
C1882      C1883   1.397       .  A
C1882      H1893   1.082       .  S
C1883      C1892   1.356       .  A
C1883      C1884   1.380       .  A
C1884      C1885   1.407       .  A
C1884      O1890   1.321       .  A
C1885      C1886   1.406       .  A
C1885      H1894   1.082       .  S
C1886      C1889   1.366       .  A
O1887      C1888   1.328       .  A
C1888      C1889   1.394       .  A
C1889      H1895   1.082       .  S
O1890      C1891   1.332       .  A
C1891      C1892   1.390       .  A
C1892      H1896   1.083       .  S
C1897      C1902   1.381       .  A
C1897      C1898   1.406       .  A
C1897      O1903   1.323       .  A
C1898      C1899   1.406       .  A
C1898      H1909   1.082       .  S
C1899      C1908   1.362       .  A
C1899      C1900   1.380       .  A
C1900      C1901   1.393       .  A
C1900      O1906   1.311       .  A
C1901      C1902   1.393       .  A
C1901      H1910   1.083       .  S
C1902      C1905   1.347       .  A
O1903      C1904   1.332       .  A
C1904      C1905   1.388       .  A
C1905      H1911   1.083       .  S
O1906      C1907   1.326       .  A
C1907      C1908   1.395       .  A
C1908      H1912   1.082       .  S
C1913      C1918   1.381       .  A
C1913      C1914   1.408       .  A
C1913      O1919   1.325       .  A
C1914      C1915   1.408       .  A
C1914      H1925   1.082       .  S
C1915      C1924   1.365       .  A
C1915      C1916   1.382       .  A
C1916      C1917   1.398       .  A
C1916      O1922   1.317       .  A
C1917      C1918   1.399       .  A
C1917      H1926   1.082       .  S
C1918      C1921   1.354       .  A
O1919      C1920   1.334       .  A
C1920      C1921   1.388       .  A
C1921      H1927   1.083       .  S
O1922      C1923   1.327       .  A
C1923      C1924   1.392       .  A
C1924      H1928   1.082       .  S
C1929      C1934   1.380       .  A
C1929      C1930   1.409       .  A
C1929      O1935   1.324       .  A
C1930      C1931   1.409       .  A
C1930      H1941   1.082       .  S
C1931      C1940   1.369       .  A
C1931      C1932   1.381       .  A
C1932      C1933   1.399       .  A
C1932      O1938   1.315       .  A
C1933      C1934   1.398       .  A
C1933      H1942   1.082       .  S
C1934      C1937   1.354       .  A
O1935      C1936   1.334       .  A
C1936      C1937   1.389       .  A
C1937      H1943   1.083       .  S
O1938      C1939   1.329       .  A
C1939      C1940   1.395       .  A
C1940      H1944   1.082       .  S
C1945      C1950   1.380       .  A
C1945      C1946   1.403       .  A
C1945      O1951   1.318       .  A
C1946      C1947   1.402       .  A
C1946      H1957   1.082       .  S
C1947      C1956   1.362       .  A
C1947      C1948   1.380       .  A
C1948      C1949   1.404       .  A
C1948      O1954   1.318       .  A
C1949      C1950   1.403       .  A
O1951      C1952   1.331       .  A
C1953      H1959   1.082       .  S
O1954      C1955   1.331       .  A
C1955      C1956   1.391       .  A
C1956      H1960   1.082       .  S
C1961      C1966   1.380       .  A
C1961      C1962   1.403       .  A
C1961      O1967   1.322       .  A
C1962      C1963   1.404       .  A
C1962      H1973   1.082       .  S
C1963      C1972   1.358       .  A
C1963      C1964   1.380       .  A
C1964      C1965   1.403       .  A
C1964      O1970   1.322       .  A
C1965      C1966   1.404       .  A
C1965      H1974   1.082       .  S
C1966      C1969   1.358       .  A
O1967      C1968   1.331       .  A
C1968      C1969   1.394       .  A
C1969      H1975   1.082       .  S
O1970      C1971   1.331       .  A
C1971      C1972   1.393       .  A
C1972      H1976   1.081       .  S
C1977      C1982   1.380       .  A
C1977      C1978   1.405       .  A
C1977      O1983   1.323       .  A
C1978      C1979   1.405       .  A
C1979      C1980   1.380       .  A
C1980      C1981   1.406       .  A
C1980      O1986   1.322       .  A
C1981      C1982   1.406       .  A
C1981      H1990   1.082       .  S
C1982      C1985   1.364       .  A
O1983      C1984   1.332       .  A
C1984      C1985   1.395       .  A
C1985      H1991   1.082       .  S
O1986      C1987   1.332       .  A
C1988      H1992   1.082       .  S
C1993      C1998   1.382       .  A
C1993      C1994   1.394       .  A
C1993      O1999   1.314       .  A
C1994      C1995   1.395       .  A
C1994      H2005   1.083       .  S
C1995      C2004   1.348       .  A
C1995      C1996   1.381       .  A
C1996      C1997   1.407       .  A
C1996      O2002   1.326       .  A
C1997      C1998   1.408       .  A
C1997      H2006   1.082       .  S
C1998      C2001   1.364       .  A
O1999      C2000   1.324       .  A
C2000      C2001   1.391       .  A
C2001      H2007   1.082       .  S
O2002      C2003   1.333       .  A
C2003      C2004   1.389       .  A
C2004      H2008   1.083       .  S
C2009      C2014   1.379       .  A
C2009      C2010   1.397       .  A
C2009      O2015   1.312       .  A
C2010      C2011   1.396       .  A
C2010      H2021   1.082       .  S
C2011      C2020   1.354       .  A
C2011      C2012   1.380       .  A
C2012      C2013   1.407       .  A
C2012      O2018   1.322       .  A
C2013      C2014   1.407       .  A
C2013      H2022   1.082       .  S
C2014      C2017   1.366       .  A
O2015      C2016   1.329       .  A
C2016      C2017   1.398       .  A
C2017      H2023   1.081       .  S
O2018      C2019   1.332       .  A
C2019      C2020   1.388       .  A
C2020      H2024   1.083       .  S
C2025      C2030   1.380       .  A
C2025      C2026   1.397       .  A
C2025      O2031   1.314       .  A
C2026      C2027   1.397       .  A
C2026      H2037   1.082       .  S
C2027      C2036   1.354       .  A
C2027      C2028   1.380       .  A
C2028      C2029   1.409       .  A
C2028      O2034   1.323       .  A
C2029      C2030   1.408       .  A
C2029      H2038   1.082       .  S
C2030      C2033   1.368       .  A
O2031      C2032   1.328       .  A
C2032      C2033   1.395       .  A
C2033      H2039   1.082       .  S
O2034      C2035   1.334       .  A
C2035      C2036   1.388       .  A
C2036      H2040   1.083       .  S
C2041      C2046   1.379       .  A
C2041      C2042   1.403       .  A
C2041      O2047   1.317       .  A
C2042      C2043   1.402       .  A
C2042      H2053   1.082       .  S
C2043      C2052   1.361       .  A
C2043      C2044   1.379       .  A
C2044      C2045   1.404       .  A
C2044      O2050   1.318       .  A
C2045      C2046   1.403       .  A
C2045      H2054   1.082       .  S
C2046      C2049   1.362       .  A
O2047      C2048   1.331       .  A
C2048      C2049   1.392       .  A
C2049      H2055   1.082       .  S
O2050      C2051   1.332       .  A
C2051      C2052   1.391       .  A
C2057      C2062   1.381       .  A
C2057      C2058   1.405       .  A
C2058      C2059   1.405       .  A
C2059      C2068   1.363       .  A
C2059      C2060   1.381       .  A
C2060      C2061   1.406       .  A
C2060      O2066   1.322       .  A
C2061      C2062   1.406       .  A
C2061      H2070   1.082       .  S
C2062      C2065   1.363       .  A
C2064      C2065   1.392       .  A
C2065      H2071   1.083       .  S
O2066      C2067   1.332       .  A
C2067      C2068   1.391       .  A
C2068      H2072   1.082       .  S
C2073      C2078   1.378       .  A
C2073      C2074   1.404       .  A
C2073      O2079   1.314       .  A
C2074      C2075   1.402       .  A
C2074      H2085   1.082       .  S
C2075      C2084   1.364       .  A
C2075      C2076   1.378       .  A
C2076      C2077   1.402       .  A
C2076      O2082   1.313       .  A
C2077      C2078   1.400       .  A
C2077      H2086   1.082       .  S
C2078      C2081   1.363       .  A
O2079      C2080   1.332       .  A
C2080      C2081   1.392       .  A
C2081      H2087   1.081       .  S
O2082      C2083   1.330       .  A
C2083      C2084   1.393       .  A
C2089      C2094   1.380       .  A
C2089      C2090   1.407       .  A
C2089      O2095   1.323       .  A
C2090      C2091   1.407       .  A
C2090      H2101   1.082       .  S
C2091      C2100   1.365       .  A
C2091      C2092   1.381       .  A
C2092      C2093   1.398       .  A
C2092      O2098   1.316       .  A
C2093      C2094   1.398       .  A
C2093      H2102   1.082   1_565  S
C2094      C2097   1.353       .  A
O2095      C2096   1.333       .  A
C2096      C2097   1.387       .  A
O2098      C2099   1.329       .  A
C2099      C2100   1.395       .  A
C2100      H2104   1.082       .  S
C2105      C2110   1.382       .  A
C2105      C2106   1.392       .  A
C2105      O2111   1.310       .  A
C2106      C2107   1.392       .  A
C2107      C2108   1.376       .  A
C2108      C2109   1.408       .  A
C2108      O2114   1.322       .  A
C2109      C2110   1.409       .  A
C2109      H2118   1.082       .  S
C2110      C2113   1.367       .  A
O2111      C2112   1.325       .  A
C2112      C2113   1.395       .  A
C2113      H2119   1.082       .  S
O2114      C2115   1.335       .  A
C2116      H2120   1.080   1_455  S
C2121      C2126   1.382       .  A
C2121      C2122   1.393       .  A
C2121      O2127   1.311       .  A
C2122      C2123   1.393       .  A
C2122      H2133   1.083   1_565  S
C2123      C2132   1.349       .  A
C2123      C2124   1.381       .  A
C2124      C2125   1.404       .  A
C2124      O2130   1.320       .  A
C2125      C2126   1.405       .  A
C2125      H2134   1.082       .  S
C2126      C2129   1.363       .  A
O2127      C2128   1.325       .  A
C2128      C2129   1.393       .  A
C2129      H2135   1.083       .  S
O2130      C2131   1.331       .  A
C2131      C2132   1.385       .  A
C2132      H2136   1.083   1_565  S
C2137      C2142   1.381       .  A
C2137      C2138   1.399       .  A
C2137      O2143   1.314       .  A
C2138      C2139   1.398       .  A
C2138      H2149   1.082       .  S
C2139      C2148   1.356       .  A
C2139      C2140   1.380       .  A
C2140      C2141   1.406       .  A
C2140      O2146   1.321       .  A
C2141      C2142   1.405       .  A
C2141      H2150   1.082       .  S
C2142      C2145   1.366       .  A
O2143      C2144   1.329       .  A
C2144      C2145   1.393       .  A
C2145      H2151   1.082       .  S
O2146      C2147   1.331       .  A
C2147      C2148   1.389       .  A
C2148      H2152   1.083       .  S
C2153      C2158   1.380       .  A
C2153      O2159   1.322       .  A
C2154      C2155   1.405       .  A
C2154      H2165   1.082       .  S
C2155      C2164   1.364       .  A
C2156      C2157   1.397       .  A
C2157      C2158   1.397       .  A
C2157      H2166   1.083       .  S
C2158      C2161   1.352       .  A
O2159      C2160   1.332       .  A
C2160      C2161   1.387       .  A
C2161      H2167   1.080       .  S
O2162      C2163   1.328       .  A
C2163      C2164   1.393       .  A
C2164      H2168   1.082       .  S
C2169      C2174   1.379       .  A
C2169      C2170   1.396       .  A
C2169      O2175   1.307       .  A
C2170      H2181   1.083       .  S
C2171      C2180   1.355       .  A
C2171      C2172   1.381       .  A
C2172      O2178   1.316       .  A
C2173      C2174   1.403   1_545  A
C2173      H2182   1.082       .  S
C2174      C2177   1.366       .  A
O2175      C2176   1.327       .  A
C2176      C2177   1.395       .  A
C2177      H2183   1.081       .  S
O2178      C2179   1.329       .  A
C2179      C2180   1.388       .  A
C2180      H2184   1.083       .  S
C2185      C2190   1.380       .  A
C2185      C2186   1.409       .  A
C2185      O2191   1.324       .  A
C2186      C2187   1.408       .  A
C2186      H2197   1.082       .  S
C2187      C2196   1.368       .  A
C2187      C2188   1.380       .  A
C2188      C2189   1.398       .  A
C2188      O2194   1.315       .  A
C2189      C2190   1.398       .  A
C2189      H2198   1.082       .  S
C2190      C2193   1.355       .  A
O2191      C2192   1.334       .  A
C2192      C2193   1.387       .  A
C2193      H2199   1.083       .  S
O2194      C2195   1.329       .  A
C2195      C2196   1.395       .  A
C2196      H2200   1.082       .  S
C2201      C2202   1.398   1_455  A
C2202      C2203   1.398       .  A
C2202      H2213   1.082       .  S
C2203      C2212   1.353       .  A
C2203      C2204   1.379       .  A
C2204      O2210   1.326       .  A
C2205      C2206   1.410       .  A
C2205      H2214   1.082       .  S
C2206      C2209   1.367       .  A
O2207      C2208   1.327       .  A
C2208      C2209   1.396       .  A
C2209      H2215   1.082       .  S
O2210      C2211   1.335       .  A
C2211      C2212   1.388       .  A
C2212      H2216   1.080       .  S
C2217      C2222   1.379       .  A
C2217      C2218   1.397       .  A
C2217      O2223   1.310       .  A
C2218      C2219   1.395       .  A
C2218      H2229   1.083       .  S
C2220      O2226   1.319       .  A
C2221      C2222   1.406       .  A
C2222      C2225   1.368       .  A
O2223      C2224   1.327       .  A
C2224      C2225   1.396       .  A
C2225      H2231   1.082       .  S
O2226      C2227   1.332       .  A
C2227      C2228   1.387       .  A
C2228      H2232   1.083   1_565  S
C2233      C2238   1.379       .  A
C2233      C2234   1.405       .  A
C2233      O2239   1.318       .  A
C2234      C2235   1.404       .  A
C2234      H2245   1.082       .  S
C2235      C2244   1.365       .  A
C2235      C2236   1.379       .  A
C2236      C2237   1.407       .  A
C2236      O2242   1.320       .  A
C2237      C2238   1.405       .  A
C2237      H2246   1.082       .  S
C2238      C2241   1.366       .  A
O2239      C2240   1.332       .  A
C2240      C2241   1.392       .  A
C2241      H2247   1.082       .  S
O2242      C2243   1.333       .  A
C2243      C2244   1.392       .  A
C2244      H2248   1.082       .  S
C2249      C2254   1.380       .  A
C2249      O2255   1.322       .  A
C2250      C2251   1.408       .  A
C2250      H2261   1.082       .  S
C2251      C2260   1.365       .  A
C2251      C2252   1.380       .  A
C2252      C2253   1.406       .  A
C2252      O2258   1.323       .  A
C2253      H2262   1.082       .  S
C2254      C2257   1.364       .  A
O2255      C2256   1.332       .  A
C2256      C2257   1.392       .  A
C2257      H2263   1.082       .  S
O2258      C2259   1.332       .  A
C2259      C2260   1.395       .  A
C2260      H2264   1.082       .  S
C2265      C2270   1.379       .  A
C2265      C2266   1.406       .  A
C2265      O2271   1.322       .  A
C2266      H2277   1.082       .  S
C2267      C2276   1.361       .  A
C2267      C2268   1.379       .  A
C2268      C2269   1.403       .  A
C2268      O2274   1.320       .  A
C2269      H2278   1.082       .  S
C2270      C2273   1.359       .  A
O2271      C2272   1.333       .  A
C2272      C2273   1.395       .  A
C2273      H2279   1.081       .  S
O2274      C2275   1.331       .  A
C2275      C2276   1.397       .  A
C2276      H2280   1.081       .  S
