geometry optimzed in LAMMPS
_audit_creation_date              2020-12-01 
_audit_creation_method            'lammps2cif' 
_symmetry_space_group_name_H-M    'P1' 
_symmetry_Int_Tables_number       1 
_symmetry_cell_setting            triclinic 
loop_ 
_symmetry_equiv_pos_as_xyz 
  x,y,z 
_cell_length_a                    34.52746006 
_cell_length_b                    33.41187349515239 
_cell_length_c                    51.43094401107688 
_cell_angle_alpha                 89.23909318635872 
_cell_angle_beta                  95.1676065811859 
_cell_angle_gamma                 120.83578672590707 
loop_ 
_atom_site_label 
_atom_site_type_symbol 
_atom_site_fract_x 
_atom_site_fract_y 
_atom_site_fract_z 
_atom_site_charge 
O1          O  0.99914443  0.97388463  0.39992345    -0.80300
O2          O  0.05031643  0.98744981  0.28846403    -0.65000
O3          O  0.04180823  0.02304451  0.35726039    -1.11600
C4          C  0.90054723  0.99650314  0.31851626     1.06600
O5          O  0.03678397  0.04246090  0.27619857    -0.78200
O6          O  0.00253741  0.08541139  0.30243413    -0.65800
Ni7        Ni  0.05799991  0.00033815  0.38755895     1.34900
C8          C  0.00679669  0.10078795  0.32558788     0.85300
O9          O  0.10739623  0.01525575  0.33300717    -0.78700
O10         O  0.11760898  0.02568243  0.37690599    -0.89000
C11         C  0.04775345  0.01287208  0.27053832     0.84900
O12         O  0.04284986  0.94015457  0.37446579    -0.67200
O13         O  0.91984884  0.00665310  0.29732912    -0.86500
C14         C  0.02943631  0.91862939  0.35230356     0.85700
C15         C  0.13151036  0.02433593  0.35490813     1.07300
H16         H  0.96655458  0.96006195  0.31315130     0.39100
O17         O  0.98753119  0.99313676  0.31641126    -1.09100
O18         O  0.00108324  0.07507017  0.34523029    -0.65800
Ni19       Ni  0.98068831  0.00920477  0.35031453     1.26300
O20         O  0.02340249  0.93748431  0.33166131    -0.66000
O21         O  0.91970489  0.99466022  0.34069647    -0.78300
C22         C  0.98180643  0.99831393  0.40452983     0.85100
O23         O  0.97553936  0.02096365  0.38612665    -0.65500
Ni24       Ni  0.97854551  0.02399140  0.28747936     1.27400
Ni25       Ni  0.04721367  0.00335128  0.32387891     1.26100
H26         H  0.06139962  0.05660667  0.35858758     0.39700
O27         O  0.99432694  0.47127352  0.39979721    -0.80300
O28         O  0.07251293  0.50742091  0.29310477    -0.65000
O29         O  0.05233710  0.52291021  0.36336943    -1.11600
C30         C  0.92042512  0.51524106  0.31972782     1.06600
O31         O  0.06060833  0.56461509  0.28384519    -0.78200
O32         O  0.01752814  0.59985801  0.30896514    -0.65800
Ni33       Ni  0.05082854  0.48177756  0.38971973     1.34900
C34         C  0.02703193  0.61405794  0.33273431     0.85300
O35         O  0.12028306  0.51915290  0.34077201    -0.78700
O36         O  0.10761516  0.49039162  0.38121544    -0.89000
C37         C  0.07140900  0.53577266  0.27663722     0.84900
O38         O  0.01915276  0.42338989  0.37021506    -0.67200
O39         O  0.93842392  0.51962469  0.29842054    -0.86500
C40         C  0.02286548  0.41430339  0.34701545     0.85700
C41         C  0.13153090  0.50504677  0.36184195     1.07300
H42         H  0.98331442  0.47447688  0.31565164     0.39100
O43         O  0.00525097  0.50697476  0.31988242    -1.09100
O44         O  0.02710459  0.58822388  0.35122417    -0.65800
Ni45       Ni  0.99638686  0.52085015  0.35378549     1.26300
O46         O  0.03734880  0.44545935  0.32982524    -0.66000
O47         O  0.94011930  0.51697727  0.34238301    -0.78300
C48         C  0.98955539  0.50477977  0.40656491     0.85100
O49         O  0.99001926  0.53245159  0.38928597    -0.65500
Ni50       Ni  0.99962075  0.54156392  0.29164964     1.27400
Ni51       Ni  0.06317377  0.51298924  0.32908287     1.26100
H52         H  0.07522264  0.55424242  0.36940190     0.39700
O53         O  0.51454326  0.96423762  0.39431144    -0.80300
O54         O  0.49385751  0.93397520  0.27266530    -0.65000
O55         O  0.52983527  0.98887208  0.34179476    -1.11600
C56         C  0.38210362  0.96736920  0.33447762     1.06600
O57         O  0.46506285  0.97857813  0.26171719    -0.78200
O58         O  0.45050841  0.03250922  0.29545994    -0.65800
Ni59       Ni  0.55433348  0.96694706  0.36894944     1.34900
C60         C  0.47726038  0.05971766  0.31432584     0.85300
O61         O  0.57232170  0.97089011  0.30418303    -0.78700
O62         O  0.59700598  0.96982529  0.34635271    -0.89000
C63         C  0.47921527  0.95189375  0.25532903     0.84900
O64         O  0.51701472  0.90110132  0.36134342    -0.67200
O65         O  0.37853790  0.95521275  0.31054622    -0.86500
C66         C  0.50092424  0.87748624  0.33980074     0.85700
C67         C  0.60136601  0.97201122  0.32187040     1.07300
H68         H  0.43479587  0.91791142  0.31694922     0.39100
O69         O  0.45476670  0.95041629  0.31365487    -1.09100
O70         O  0.49438606  0.04574281  0.33273340    -0.65800
Ni71       Ni  0.47375169  0.98407504  0.34646557     1.26300
O72         O  0.49595142  0.89582202  0.31860431    -0.66000
O73         O  0.41684721  0.97864022  0.35039051    -0.78300
C74         C  0.50551745  0.99593438  0.39881523     0.85100
O75         O  0.49521372  0.01483398  0.38006612    -0.65500
Ni76       Ni  0.42322426  0.96669828  0.28735360     1.27400
Ni77       Ni  0.51273560  0.95926454  0.30793140     1.26100
H78         H  0.55223580  0.02137632  0.33994687     0.39700
O79         O  0.51806738  0.44959319  0.39696221    -0.80300
O80         O  0.51776640  0.44668595  0.27754044    -0.65000
O81         O  0.54041504  0.49217017  0.34864874    -1.11600
C82         C  0.39349780  0.46824311  0.33359325     1.06600
O83         O  0.49698418  0.49757305  0.26649317    -0.78200
O84         O  0.48653668  0.55101542  0.30245656    -0.65800
Ni85       Ni  0.56713050  0.47093502  0.37511863     1.34900
C86         C  0.49557534  0.56761249  0.32580199     0.85300
O87         O  0.59007853  0.47775614  0.31313162    -0.78700
O88         O  0.61823231  0.49153020  0.35554110    -0.89000
C89         C  0.50933542  0.46927409  0.26006672     0.84900
O90         O  0.54381063  0.40808119  0.36227019    -0.67200
O91         O  0.40363191  0.47740850  0.31008503    -0.86500
C92         C  0.52155529  0.38512521  0.34123053     0.85700
C93         C  0.62175798  0.48808700  0.33130591     1.07300
H94         H  0.44955916  0.42562784  0.31421401     0.39100
O95         O  0.47148042  0.45869295  0.31551035    -1.09100
O96         O  0.49585511  0.54356712  0.34538170    -0.65800
Ni97       Ni  0.48007969  0.47889549  0.35122102     1.26300
O98         O  0.50926840  0.40332926  0.32263762    -0.66000
O99         O  0.41880195  0.46374481  0.35166465    -0.78300
C100        C  0.50327226  0.47481596  0.40473712     0.85100
O101        O  0.49103641  0.49577787  0.38806869    -0.65500
Ni102      Ni  0.45152331  0.48703872  0.28966403     1.27400
Ni103      Ni  0.53031991  0.46775307  0.31367115     1.26100
H104        H  0.56008415  0.52561634  0.34833085     0.39700
O105        O  0.07816506  0.03277282  0.06669205    -0.80300
O106        O  0.05377094  0.03658323  0.94899645    -0.65000
O107        O  0.02583480  0.01503127  0.01976432    -1.11600
C108        C  0.05005510  0.88846268  0.00906164     1.06600
O109        O  0.00712978  0.96160196  0.93952704    -0.78200
O110        O  0.96691214  0.89334928  0.97436785    -0.65800
Ni111      Ni  0.05363096  0.06391925  0.04551472     1.34900
C112        C  0.94923903  0.89060129  0.99551817     0.85300
O113        O  0.02833660  0.07869348  0.98312145    -0.78700
O114        O  0.02977303  0.09668415  0.02561804    -0.89000
C115        C  0.03323931  0.00270094  0.93227983     0.84900
O116        O  0.11148384  0.10360561  0.03265648    -0.67200
O117        O  0.04552349  0.89361057  0.98457137    -0.86500
C118        C  0.12826924  0.10562338  0.01132942     0.85700
C119        C  0.02358420  0.10161532  0.00117195     1.07300
H120        H  0.08531283  0.99137561  0.98976353     0.39100
O121        O  0.05291541  0.97831722  0.98902993    -1.09100
O122        O  0.97206853  0.91831158  0.01533267    -0.65800
Ni123      Ni  0.03674242  0.96454111  0.02401476     1.26300
O124        O  0.10573906  0.07529186  0.99270901    -0.66000
O125        O  0.04820851  0.91400461  0.02662184    -0.78300
C126        C  0.05273033  0.99320668  0.07604035     0.85100
O127        O  0.02583305  0.95860335  0.06049367    -0.65500
Ni128      Ni  0.02675041  0.92914271  0.96319483     1.27400
Ni129      Ni  0.04135447  0.02877573  0.98494121     1.26100
H130        H  0.99363728  0.00245090  0.01937879     0.39700
O131        O  0.97555190  0.50762065  0.95198927    -0.80300
O132        O  0.04327641  0.51768518  0.06406977    -0.65000
O133        O  0.02187963  0.48810047  0.99082966    -1.11600
C134        C  0.88125438  0.36340248  0.01011269     1.06600
O135        O  0.01694385  0.44359256  0.07387854    -0.78200
O136        O  0.99502181  0.38562759  0.03173863    -0.65800
Ni137      Ni  0.03689259  0.53508514  0.96626797     1.34900
C138        C  0.99051834  0.37648651  0.00742091     0.85300
O139        O  0.09591590  0.55699854  0.02365349    -0.78700
O140        O  0.09853876  0.56459784  0.97996526    -0.89000
C141        C  0.03703000  0.48675276  0.08062412     0.84900
O142        O  0.02914830  0.57787876  0.98578173    -0.67200
O143        O  0.90538047  0.36274732  0.03037691    -0.86500
C144        C  0.01689396  0.57832018  0.00822410     0.85700
C145        C  0.11698801  0.57558252  0.00337021     1.07300
H146        H  0.95432379  0.46788973  0.03356688     0.39100
O147        O  0.97246761  0.45556740  0.02824140    -1.09100
O148        O  0.97339237  0.39285750  0.99062561    -0.65800
Ni149      Ni  0.95904578  0.44173090  0.99123224     1.26300
O150        O  0.01296773  0.54888449  0.02518832    -0.66000
O151        O  0.89651478  0.39584536  0.99378921    -0.78300
C152        C  0.95750400  0.46853223  0.94000778     0.85100
O153        O  0.94882023  0.43308027  0.95337704    -0.65500
Ni154      Ni  0.96246591  0.40579593  0.05045446     1.27400
Ni155      Ni  0.03415855  0.50556941  0.02700969     1.26100
H156        H  0.03845051  0.47294852  0.98736085     0.39700
O157        O  0.50947999  0.01811848  0.05640591    -0.80300
O158        O  0.48940307  0.00670737  0.93145757    -0.65000
O159        O  0.46729075  0.98884720  0.00412884    -1.11600
C160        C  0.53664001  0.89855941  0.99729735     1.06600
O161        O  0.45422872  0.93025966  0.92631376    -0.78200
O162        O  0.43502041  0.86887875  0.96416721    -0.65800
Ni163      Ni  0.48455398  0.03972286  0.02806314     1.34900
C164        C  0.41861857  0.86575249  0.98569222     0.85300
O165        O  0.45172803  0.03748733  0.96295492    -0.78700
O166        O  0.46099793  0.06745717  0.00341164    -0.89000
C167        C  0.46936398  0.97005570  0.91654575     0.84900
O168        O  0.54368429  0.07770944  0.01741423    -0.67200
O169        O  0.52446664  0.89532989  0.97281743    -0.86500
C170        C  0.56073509  0.08421932  0.99574161     0.85700
C171        C  0.44976748  0.06491220  0.97895301     1.07300
H172        H  0.54055701  0.98573269  0.97370192     0.39100
O173        O  0.50748069  0.96511432  0.97420175    -1.09100
O174        O  0.43893912  0.89664830  0.00402200    -0.65800
Ni175      Ni  0.49673195  0.95365820  0.00988019     1.26300
O176        O  0.53896411  0.05816424  0.97527919    -0.66000
O177        O  0.52736928  0.91950510  0.01400911    -0.78300
C178        C  0.49966182  0.97733749  0.06288471     0.85100
O179        O  0.48642612  0.94475464  0.04587131    -0.65500
Ni180      Ni  0.48971748  0.91425290  0.95049774     1.27400
Ni181      Ni  0.47974719  0.00115229  0.96811644     1.26100
H182        H  0.43526067  0.96847870  0.00430906     0.39700
O183        O  0.58211561  0.50550554  0.05954253    -0.80300
O184        O  0.53349858  0.55997263  0.95227855    -0.65000
O185        O  0.52988017  0.51955435  0.02237843    -1.11600
C186        C  0.51733128  0.38686626  0.97897899     1.06600
O187        O  0.47436913  0.49060495  0.94198514    -0.78200
O188        O  0.44337553  0.40745493  0.96621382    -0.65800
Ni189      Ni  0.57563399  0.55720262  0.04912303     1.34900
C190        C  0.43172195  0.40348156  0.98925043     0.85300
O191        O  0.53241412  0.59541924  0.99937583    -0.78700
O192        O  0.57043213  0.61017071  0.03975963    -0.89000
C193        C  0.50111815  0.53214858  0.93574809     0.84900
O194        O  0.62817741  0.58172818  0.03025842    -0.67200
O195        O  0.51916412  0.40872156  0.95810206    -0.86500
C196        C  0.63366460  0.59840305  0.00761276     0.85700
C197        C  0.55254738  0.62096214  0.02013955     1.07300
H198        H  0.56630822  0.49705030  0.97674449     0.39100
O199        O  0.53569660  0.48774523  0.97968570    -1.09100
O200        O  0.45857234  0.43059457  0.00824344    -0.65800
Ni201      Ni  0.52458676  0.46125678  0.01324426     1.26300
O202        O  0.60039131  0.58379750  0.98987287    -0.66000
O203        O  0.51885851  0.40301281  0.00186165    -0.78300
C204        C  0.54814893  0.46850639  0.06662922     0.85100
O205        O  0.51755234  0.44146722  0.04897466    -0.65500
Ni206      Ni  0.49750265  0.45014581  0.95048668     1.27400
Ni207      Ni  0.53426869  0.54251454  0.98818454     1.26100
H208        H  0.50130598  0.51330671  0.02797205     0.39700
O209        O  0.00402286  0.06146885  0.60412900    -0.80300
O210        O  0.03459402  0.04018626  0.72143068    -0.65000
O211        O  0.00085275  0.01238954  0.64816111    -1.11600
C212        C  0.87990847  0.03817932  0.66599099     1.06600
O213        O  0.96240868  0.99327017  0.72725202    -0.78200
O214        O  0.88740745  0.95968571  0.69335272    -0.65800
Ni215      Ni  0.04273167  0.04259767  0.62300804     1.34900
C216        C  0.88024263  0.93733037  0.67203717     0.85300
O217        O  0.07182939  0.01740057  0.68304212    -0.78700
O218        O  0.08366452  0.02485182  0.64021863    -0.89000
C219        C  0.00366097  0.01676487  0.73650336     0.84900
O220        O  0.07912549  0.10383060  0.63920347    -0.67200
O221        O  0.89619106  0.04363192  0.68994778    -0.86500
C222        C  0.08769798  0.12016457  0.66257750     0.85700
C223        C  0.09363119  0.01782951  0.66379686     1.07300
H224        H  0.98537381  0.07452094  0.68285741     0.39100
O225        O  0.97202633  0.04104868  0.68235755    -1.09100
O226        O  0.90702097  0.95457573  0.65384037    -0.65800
Ni227      Ni  0.94922050  0.02077519  0.64700481     1.26300
O228        O  0.06580786  0.09537454  0.68112081    -0.66000
O229        O  0.89757946  0.02968810  0.64743583    -0.78300
C230        C  0.96362226  0.03238361  0.59479458     0.85100
O231        O  0.93441619  0.00579158  0.61009448    -0.65500
Ni232      Ni  0.93100330  0.01966986  0.70812502     1.27400
Ni233      Ni  0.02160868  0.02901200  0.68411759     1.26100
H234        H  0.98952047  0.97949124  0.64589958     0.39700
O235        O  0.02012071  0.52801192  0.73878816    -0.80300
O236        O  0.00352097  0.52952873  0.61602566    -0.65000
O237        O  0.99571503  0.54646357  0.68825252    -1.11600
C238        C  0.88965123  0.38388405  0.67946574     1.06600
O239        O  0.92914550  0.49032875  0.60940403    -0.78200
O240        O  0.86891952  0.45384267  0.64548061    -0.65800
Ni241      Ni  0.04873727  0.57320896  0.71221584     1.34900
C242        C  0.86975898  0.47812225  0.66455335     0.85300
O243        O  0.04085093  0.60367869  0.64907710    -0.78700
O244        O  0.08121737  0.62229927  0.68846127    -0.89000
C245        C  0.96754104  0.51220196  0.60046976     0.84900
O246        O  0.07552710  0.53893735  0.70063658    -0.67200
O247        O  0.89215698  0.38804000  0.65488162    -0.86500
C248        C  0.08142783  0.53228849  0.67737707     0.85700
C249        C  0.07410415  0.63184315  0.66494770     1.07300
H250        H  0.97975735  0.45947124  0.65901150     0.39100
O251        O  0.96246237  0.47491686  0.65797159    -1.09100
O252        O  0.90263716  0.49534119  0.68266972    -0.65800
Ni253      Ni  0.95161225  0.48299261  0.69263432     1.26300
O254        O  0.05612404  0.53285125  0.65775236    -0.66000
O255        O  0.90852719  0.41823953  0.69603120    -0.78300
C256        C  0.97972406  0.50902240  0.74540134     0.85100
O257        O  0.94612480  0.49438267  0.72814011    -0.65500
Ni258      Ni  0.91187062  0.44015786  0.63305488     1.27400
Ni259      Ni  0.00227997  0.53909643  0.65253753     1.26100
H260        H  0.98204017  0.56532896  0.68925599     0.39700
O261        O  0.49065844  0.96973825  0.71131570    -0.80300
O262        O  0.53218088  0.05524204  0.60680932    -0.65000
O263        O  0.49338310  0.03193193  0.67557811    -1.11600
C264        C  0.36458587  0.90211046  0.63192987     1.06600
O265        O  0.46695814  0.04928372  0.59467234    -0.78200
O266        O  0.39078724  0.01269602  0.62145481    -0.65800
Ni267      Ni  0.53196240  0.03299777  0.70437869     1.34900
C268        C  0.38182285  0.01191894  0.64500168     0.85300
O269        O  0.57143069  0.10082737  0.65412471    -0.78700
O270        O  0.57375404  0.09617186  0.69805747    -0.89000
C271        C  0.50508249  0.05665510  0.58886170     0.84900
O272        O  0.56907447  0.01520073  0.68804735    -0.67200
O273        O  0.37548654  0.92661515  0.61163930    -0.86500
C274        C  0.57347311  0.00900527  0.66444075     0.85700
C275        C  0.59091734  0.11603984  0.67724705     1.07300
H276        H  0.46770406  0.96432876  0.62759936     0.39100
O277        O  0.46026284  0.98728352  0.63236979    -1.09100
O278        O  0.40145301  0.00096837  0.66359054    -0.65800
Ni279      Ni  0.43943743  0.97320583  0.66624029     1.26300
O280        O  0.54899411  0.01216725  0.64537539    -0.66000
O281        O  0.38703517  0.91483169  0.65447404    -0.78300
C282        C  0.45354914  0.96145105  0.71897681     0.85100
O283        O  0.42420828  0.96140505  0.70209759    -0.65500
Ni284      Ni  0.42165897  0.98804153  0.60403688     1.27400
Ni285      Ni  0.51567216  0.04463962  0.64211251     1.26100
H286        H  0.48483517  0.05442243  0.67950211     0.39700
O287        O  0.45341793  0.47943481  0.60884541    -0.80300
O288        O  0.45043606  0.52051293  0.72486541    -0.65000
O289        O  0.46724762  0.53504601  0.65199817    -1.11600
C290        C  0.59312571  0.51281079  0.67901537     1.06600
O291        O  0.52349312  0.57174376  0.73275946    -0.78200
O292        O  0.59062813  0.60106377  0.70092343    -0.65800
Ni293      Ni  0.41864793  0.49953296  0.62602634     1.34900
C294        C  0.59181238  0.61779097  0.67849027     0.85300
O295        O  0.40449458  0.53673956  0.68390278    -0.78700
O296        O  0.38007012  0.51705546  0.64140054    -0.89000
C297        C  0.48435214  0.54795633  0.74071866     0.84900
O298        O  0.38870697  0.44064029  0.64220353    -0.67200
O299        O  0.58525304  0.51748320  0.70231729    -0.86500
C300        C  0.38467466  0.42964444  0.66593108     0.85700
C301        C  0.37593318  0.52943990  0.66398626     1.07300
H302        H  0.49239953  0.48090086  0.69144433     0.39100
O303        O  0.50496472  0.51399576  0.68954208    -1.09100
O304        O  0.56223175  0.59385907  0.65939607    -0.65800
Ni305      Ni  0.51892485  0.52633905  0.65416240     1.26300
O306        O  0.40976049  0.45855541  0.68478459    -0.66000
O307        O  0.57056245  0.51644148  0.65860631    -0.78300
C308        C  0.49177799  0.50660947  0.60057470     0.85100
O309        O  0.52521922  0.53412680  0.61687011    -0.65500
Ni310      Ni  0.55269793  0.54355228  0.71669706     1.27400
Ni311      Ni  0.45507844  0.52542206  0.68778458     1.26100
H312        H  0.47794306  0.56739047  0.64880823     0.39700
C313        C  0.79409250  0.28582237  0.71048865    -0.13800
C314        C  0.78117856  0.25037435  0.69155803     0.16600
C315        C  0.81158801  0.25559736  0.67348885     0.02900
C316        C  0.85109239  0.29868944  0.67212702    -0.12300
C317        C  0.86023625  0.33660441  0.68836620    -0.03300
C318        C  0.83365008  0.32880356  0.70923435     0.02200
C319        C  0.73298011  0.21426120  0.68755461     0.09000
N320        N  0.80103856  0.21898923  0.65500095     0.65400
H321        H  0.87236282  0.30365633  0.65667378     0.18300
N322        N  0.84216021  0.36576164  0.72679194     0.75800
H323        H  0.77095929  0.28225609  0.72447618     0.09800
C324        C  0.70996842  0.18747088  0.70827538     0.03500
C325        C  0.66320616  0.15867137  0.70489192    -0.05200
C326        C  0.63825995  0.15508466  0.68088295    -0.23600
C327        C  0.66120820  0.18332780  0.66038885     0.12700
C328        C  0.70823384  0.21280565  0.66397339    -0.12800
N329        N  0.73363611  0.18855647  0.73279621     0.64400
H330        H  0.64684454  0.13732583  0.72104554     0.12300
N331        N  0.63737990  0.18392049  0.63631756     0.61000
H332        H  0.72532121  0.23586813  0.64854428     0.08400
O333        O  0.86038471  0.36842548  0.74960018    -0.40400
O334        O  0.82250799  0.38841788  0.72165639    -0.39600
O335        O  0.78620510  0.22039371  0.63187723    -0.39600
O336        O  0.81776765  0.19349008  0.65964536    -0.37300
O337        O  0.62357863  0.21233301  0.63407970    -0.38200
O338        O  0.63900761  0.16410782  0.61607371    -0.34400
O339        O  0.72901101  0.20678756  0.75272662    -0.35800
O340        O  0.74975471  0.16220385  0.73570621    -0.40100
C341        C  0.26851459  0.78040602  0.64145356    -0.13800
C342        C  0.23205026  0.78453587  0.63061853     0.16600
C343        C  0.23985190  0.82491559  0.61779140     0.02900
C344        C  0.28413602  0.86144267  0.61676432    -0.12300
C345        C  0.32060748  0.85897490  0.62934823    -0.03300
C346        C  0.31286991  0.81770716  0.64127227     0.02200
C347        C  0.18679731  0.74984122  0.63705174     0.09000
N348        N  0.20330241  0.83136646  0.60832769     0.65400
H349        H  0.28973397  0.89340305  0.60793812     0.18300
N350        N  0.34925495  0.81366104  0.65387050     0.75800
H351        H  0.26224200  0.74919724  0.65150678     0.09800
C352        C  0.15661679  0.71255006  0.61970247     0.03500
C353        C  0.11706198  0.67617901  0.62853193    -0.05200
C354        C  0.10837861  0.67595981  0.65476761    -0.23600
C355        C  0.13716563  0.71529511  0.67141455     0.12700
C356        C  0.17604474  0.75201670  0.66234839    -0.12800
N357        N  0.16780419  0.70895623  0.59408686     0.64400
H358        H  0.09546686  0.64606993  0.61551314     0.12300
N359        N  0.12813435  0.71790982  0.69771523     0.61000
H360        H  0.19916890  0.78139918  0.67550923     0.08400
O361        O  0.36425133  0.79231914  0.64206125    -0.40400
O362        O  0.35869301  0.82133480  0.67824189    -0.39600
O363        O  0.18997422  0.85062199  0.62322502    -0.39600
O364        O  0.19229624  0.82845629  0.58406137    -0.37300
O365        O  0.10255786  0.73308000  0.70229365    -0.38200
O366        O  0.15273994  0.71477031  0.71634251    -0.34400
O367        O  0.19127320  0.69065393  0.59087400    -0.35800
O368        O  0.14718055  0.71536269  0.57447360    -0.40100
C369        C  0.69160464  0.48982550  0.69397887    -0.13800
C370        C  0.71435139  0.50457164  0.67129873     0.16600
C371        C  0.69507674  0.51906959  0.65055490     0.02900
C372        C  0.65483513  0.51948798  0.65297886    -0.12300
C373        C  0.63242042  0.50566396  0.67589157    -0.03300
C374        C  0.65125176  0.48993250  0.69642259     0.02200
C375        C  0.75573905  0.50083885  0.66890761     0.09000
N376        N  0.71710055  0.53559006  0.62723037     0.65400
H377        H  0.64198504  0.53236179  0.63704947     0.18300
N378        N  0.62905390  0.47216628  0.71961946     0.75800
H379        H  0.70470233  0.47697773  0.70979902     0.09800
C380        C  0.79494749  0.52331722  0.68692035     0.03500
C381        C  0.83137587  0.51573985  0.68518958    -0.05200
C382        C  0.83036725  0.48606756  0.66555930    -0.23600
C383        C  0.79102692  0.46408764  0.64729461     0.12700
C384        C  0.75474882  0.47161996  0.64919594    -0.12800
N385        N  0.79905942  0.55531925  0.70663384     0.64400
H386        H  0.86080932  0.53356844  0.69931917     0.12300
N387        N  0.78642850  0.43291912  0.62688039     0.61000
H388        H  0.72486207  0.45335079  0.63540881     0.08400
O389        O  0.64565475  0.49619609  0.74074043    -0.40400
O390        O  0.59989871  0.42930048  0.72026938    -0.39600
O391        O  0.69991907  0.51096916  0.60633513    -0.39600
O392        O  0.74736367  0.57800196  0.62626133    -0.37300
O393        O  0.76637762  0.38967804  0.63052136    -0.38200
O394        O  0.79318868  0.44713530  0.60395005    -0.34400
O395        O  0.79647944  0.54388235  0.73017239    -0.35800
O396        O  0.81498732  0.59761794  0.70139505    -0.40100
C397        C  0.19233880  0.55243808  0.65346904    -0.13800
C398        C  0.20313206  0.52470199  0.66978927     0.16600
C399        C  0.17166693  0.49696849  0.68767301     0.02900
C400        C  0.13182781  0.49873068  0.68946250    -0.12300
C401        C  0.12119682  0.52665949  0.67310761    -0.03300
C402        C  0.15207363  0.55326192  0.65472736     0.02200
C403        C  0.24787489  0.52669997  0.66845118     0.09000
N404        N  0.17901926  0.46579992  0.70372058     0.65400
H405        H  0.10896695  0.47798047  0.70375240     0.18300
N406        N  0.14548550  0.58503460  0.63885458     0.75800
H407        H  0.21617845  0.57511925  0.64011347     0.09800
C408        C  0.26170070  0.52035181  0.64455053     0.03500
C409        C  0.30364907  0.52312704  0.64377802    -0.05200
C410        C  0.33403102  0.53271533  0.66634430    -0.23600
C411        C  0.32120293  0.54128488  0.69015594     0.12700
C412        C  0.27861767  0.53783775  0.69099941    -0.12800
N413        N  0.23298315  0.50957847  0.62072049     0.64400
H414        H  0.31190063  0.51672861  0.62503945     0.12300
N415        N  0.35123981  0.55475336  0.71357328     0.61000
H416        H  0.26998737  0.54498234  0.70941404     0.08400
O417        O  0.12580294  0.57199102  0.61606330    -0.40400
O418        O  0.16909227  0.62805216  0.64485587    -0.39600
O419        O  0.19204608  0.47612615  0.72767611    -0.39600
O420        O  0.16414052  0.42467975  0.69527308    -0.37300
O421        O  0.37790205  0.59754410  0.71935523    -0.38200
O422        O  0.34440114  0.52519189  0.73080082    -0.34400
O423        O  0.24297690  0.54050558  0.60397423    -0.35800
O424        O  0.20570271  0.46741925  0.61377694    -0.40100
C425        C  0.76018242  0.83808454  0.68158629    -0.13800
C426        C  0.75767263  0.79953188  0.66950951     0.16600
C427        C  0.79453033  0.80695025  0.65583052     0.02900
C428        C  0.83392377  0.85194866  0.65585254    -0.12300
C429        C  0.83724519  0.89022902  0.66923597    -0.03300
C430        C  0.79869955  0.88271760  0.68143538     0.02200
C431        C  0.71576866  0.75257314  0.67148953     0.09000
N432        N  0.79304379  0.76892919  0.64249392     0.65400
H433        H  0.86235470  0.85658326  0.64604745     0.18300
N434        N  0.79716470  0.92038860  0.69318412     0.75800
H435        H  0.73162456  0.83356143  0.69124613     0.09800
C436        C  0.70327852  0.73253043  0.69590529     0.03500
C437        C  0.66226931  0.69026176  0.69759968    -0.05200
C438        C  0.63162456  0.66654022  0.67538052    -0.23600
C439        C  0.64332353  0.68818875  0.65111967     0.12700
C440        C  0.68519259  0.73010864  0.64936533    -0.12800
N441        N  0.73224829  0.75441645  0.71932004     0.64400
H442        H  0.65493625  0.67568599  0.71671320     0.12300
N443        N  0.61353651  0.66854865  0.62788549     0.61000
H444        H  0.69324972  0.74603809  0.63060793     0.08400
O445        O  0.80607361  0.92789373  0.71758671    -0.40400
O446        O  0.77501980  0.93636403  0.68089567    -0.39600
O447        O  0.78329010  0.76337180  0.61806828    -0.39600
O448        O  0.80973501  0.74688256  0.65408187    -0.37300
O449        O  0.57835041  0.67138879  0.62479114    -0.38200
O450        O  0.62884962  0.66165648  0.60818855    -0.34400
O451        O  0.72284626  0.77698426  0.73446120    -0.35800
O452        O  0.76033672  0.74256719  0.72755054    -0.40100
C453        C  0.28810131  0.30267892  0.65596891    -0.13800
C454        C  0.25800584  0.30023164  0.67351370     0.16600
C455        C  0.27350020  0.33856392  0.69130712     0.02900
C456        C  0.31683870  0.37882080  0.69019069    -0.12300
C457        C  0.34557452  0.38241134  0.67134953    -0.03300
C458        C  0.33100906  0.34300015  0.65459696     0.02200
C459        C  0.21082876  0.25767815  0.67230368     0.09000
N460        N  0.24440454  0.33881906  0.70926933     0.65400
H461        H  0.32663449  0.40875656  0.70292988     0.18300
N462        N  0.35941625  0.34330735  0.63594659     0.75800
H463        H  0.27790225  0.27314480  0.64282231     0.09800
C464        C  0.18227640  0.24257978  0.64863802     0.03500
C465        C  0.14132042  0.19940062  0.64659009    -0.05200
C466        C  0.12677681  0.16970639  0.66778896    -0.23600
C467        C  0.15381423  0.18624521  0.69210113     0.12700
C468        C  0.19531470  0.22958037  0.69407113    -0.12800
N469        N  0.19449615  0.27075573  0.62625189     0.64400
H470        H  0.12123253  0.18851431  0.62783088     0.12300
N471        N  0.14124541  0.15848056  0.71463427     0.61000
H472        H  0.21645212  0.24028888  0.71247382     0.08400
O473        O  0.35031377  0.34714525  0.61205834    -0.40400
O474        O  0.38661878  0.32947367  0.64245347    -0.39600
O475        O  0.25172381  0.33382265  0.73322882    -0.39600
O476        O  0.21871085  0.35430884  0.70228430    -0.37300
O477        O  0.15911811  0.13443299  0.72073531    -0.38200
O478        O  0.12057831  0.16589182  0.73119354    -0.34400
O479        O  0.20855546  0.25943587  0.60748890    -0.35800
O480        O  0.18184714  0.29995296  0.62282534    -0.40100
C481        C  0.76092193  0.00849019  0.63710726    -0.13800
C482        C  0.74852806  0.02792368  0.65645945     0.16600
C483        C  0.78129192  0.05482768  0.67716075     0.02900
C484        C  0.82458183  0.06017881  0.67888348    -0.12300
C485        C  0.83671001  0.03894316  0.66030770    -0.03300
C486        C  0.80424399  0.01340297  0.63888127     0.02200
C487        C  0.70072428  0.01756225  0.65599660     0.09000
N488        N  0.77082741  0.07655028  0.69688434     0.65400
H489        H  0.84847819  0.08009614  0.69543432     0.18300
N490        N  0.81292519  0.98861522  0.62003480     0.75800
H491        H  0.73602440  0.98733276  0.62119424     0.09800
C492        C  0.68243472  0.03607717  0.63721403     0.03500
C493        C  0.63897132  0.02923757  0.63891997    -0.05200
C494        C  0.61259215  0.00373153  0.65908191    -0.23600
C495        C  0.62952249  0.98207718  0.67663215     0.12700
C496        C  0.67329119  0.98952402  0.67513950    -0.12800
N497        N  0.70880404  0.06462170  0.61732106     0.64400
H498        H  0.62712282  0.04668217  0.62538382     0.12300
N499        N  0.60221351  0.95148815  0.69565315     0.61000
H500        H  0.68611473  0.97357022  0.68916163     0.08400
O501        O  0.81862493  0.00258050  0.59701142    -0.40400
O502        O  0.80540668  0.94820557  0.62476351    -0.39600
O503        O  0.76295524  0.05917573  0.71908773    -0.39600
O504        O  0.77721940  0.11691296  0.69365908    -0.37300
O505        O  0.57416411  0.90928050  0.68913897    -0.38200
O506        O  0.61237159  0.96382636  0.71955485    -0.34400
O507        O  0.70164174  0.04749616  0.59445816    -0.35800
O508        O  0.73230276  0.10827349  0.62125473    -0.40100
C509        C  0.18087881  0.98291056  0.65334073    -0.13800
C510        C  0.22047983  0.01835117  0.66750095     0.16600
C511        C  0.21595849  0.04995716  0.68334651     0.02900
C512        C  0.17325631  0.04632034  0.68389027    -0.12300
C513        C  0.13451231  0.01262409  0.66836088    -0.03300
C514        C  0.13879346  0.98023560  0.65333431     0.02200
C515        C  0.26553949  0.02307231  0.66301278     0.09000
N516        N  0.25475807  0.08866266  0.69703746     0.65400
H517        H  0.17126059  0.07246683  0.69492362     0.18300
N518        N  0.10077217  0.94484085  0.63732729     0.75800
H519        H  0.18293282  0.95783595  0.64127201     0.09800
C520        C  0.29653879  0.02318106  0.68314054     0.03500
C521        C  0.33552160  0.02275556  0.67694093    -0.05200
C522        C  0.34459355  0.02102310  0.65087338    -0.23600
C523        C  0.31387132  0.02193166  0.63086576     0.12700
C524        C  0.27582492  0.02363465  0.63710613    -0.12800
N525        N  0.28734383  0.01967072  0.70986910     0.64400
H526        H  0.35756787  0.02120889  0.69278067     0.12300
N527        N  0.31840375  0.01742039  0.60388813     0.61000
H528        H  0.25283291  0.02347234  0.62124189     0.08400
O529        O  0.07750191  0.90471563  0.64610728    -0.40400
O530        O  0.09696271  0.95037016  0.61310935    -0.39600
O531        O  0.28012077  0.12393574  0.68453847    -0.39600
O532        O  0.25677792  0.09253573  0.72156988    -0.37300
O533        O  0.33537578  0.05325001  0.59037602    -0.38200
O534        O  0.29673305  0.97758233  0.59254654    -0.34400
O535        O  0.25926960  0.98040591  0.71803383    -0.35800
O536        O  0.31507456  0.05164055  0.72619035    -0.40100
C537        C  0.45023923  0.53012217  0.86683980    -0.13800
C538        C  0.48924233  0.55395141  0.85352352     0.16600
C539        C  0.53205662  0.57720963  0.86831721     0.02900
C540        C  0.53508690  0.57334308  0.89560121    -0.12300
C541        C  0.49617089  0.54567417  0.90852299    -0.03300
C542        C  0.45331247  0.52538439  0.89394026     0.02200
C543        C  0.48449470  0.55273908  0.82430077     0.09000
N544        N  0.57295826  0.60170006  0.85579460     0.65400
H545        H  0.56828517  0.58899371  0.90639195     0.18300
N546        N  0.41246328  0.49929892  0.90632671     0.75800
H547        H  0.41704201  0.51391009  0.85601842     0.09800
C548        C  0.45960791  0.50995731  0.80963669     0.03500
C549        C  0.45698998  0.50946657  0.78225829    -0.05200
C550        C  0.47970196  0.55090433  0.76891398    -0.23600
C551        C  0.50293612  0.59382907  0.78341029     0.12700
C552        C  0.50489607  0.59443575  0.81082237    -0.12800
N553        N  0.43970679  0.46642694  0.82228187     0.64400
H554        H  0.43958655  0.47621985  0.77146693     0.12300
N555        N  0.52389679  0.63711457  0.77052893     0.61000
H556        H  0.52279713  0.62764857  0.82163186     0.08400
O557        O  0.39150425  0.45530896  0.90487717    -0.40400
O558        O  0.39275393  0.51960053  0.91366540    -0.39600
O559        O  0.59883411  0.64507129  0.86008222    -0.39600
O560        O  0.58674066  0.57908942  0.84408187    -0.37300
O561        O  0.50208213  0.65759616  0.76542574    -0.38200
O562        O  0.56615493  0.65902400  0.76915841    -0.34400
O563        O  0.39718417  0.44194317  0.82216468    -0.35800
O564        O  0.46349452  0.44855228  0.82881461    -0.40100
C565        C  0.56799675  0.82101061  0.03592531    -0.13800
C566        C  0.58216812  0.80495017  0.01595737     0.16600
C567        C  0.59178872  0.82800127  0.99229576     0.02900
C568        C  0.58143876  0.86282296  0.98770666    -0.12300
C569        C  0.56092961  0.87443340  0.00628253    -0.03300
C570        C  0.55772101  0.85599118  0.03142485     0.02200
C571        C  0.57578003  0.75825881  0.01779859     0.09000
N572        N  0.60676000  0.81270289  0.97162701     0.65400
H573        H  0.58577034  0.87781659  0.96860663     0.18300
N574        N  0.53963370  0.86846466  0.05164491     0.75800
H575        H  0.56115266  0.80353418  0.05431775     0.09800
C576        C  0.61236070  0.75091064  0.02223063     0.03500
C577        C  0.60372360  0.70545249  0.02398025    -0.05200
C578        C  0.55915617  0.66745346  0.02077623    -0.23600
C579        C  0.52261402  0.67465290  0.01611041     0.12700
C580        C  0.53113597  0.72009907  0.01472661    -0.12800
N581        N  0.65817134  0.78892843  0.02467645     0.64400
H582        H  0.63196533  0.69968973  0.02704271     0.12300
N583        N  0.47695046  0.63619714  0.01331971     0.61000
H584        H  0.50290532  0.72578116  0.01123207     0.08400
O585        O  0.56631011  0.90110034  0.06789431    -0.40400
O586        O  0.49965912  0.84049221  0.05689862    -0.39600
O587        O  0.57785763  0.78057296  0.95576480    -0.39600
O588        O  0.64694630  0.83780523  0.96584207    -0.37300
O589        O  0.45555767  0.62311890  0.99092978    -0.38200
O590        O  0.45989423  0.61207262  0.03274757    -0.34400
O591        O  0.67775690  0.80550779  0.04714069    -0.35800
O592        O  0.68178059  0.79726986  0.00575189    -0.40100
C593        C  0.42511226  0.16137976  0.97907053    -0.13800
C594        C  0.45844053  0.19231914  0.96341069     0.16600
C595        C  0.47918573  0.17562783  0.94783346     0.02900
C596        C  0.46910480  0.12958576  0.94996609    -0.12300
C597        C  0.44098966  0.10097414  0.96859264    -0.03300
C598        C  0.41670090  0.11605488  0.98207982     0.02200
C599        C  0.47559040  0.24268818  0.96676538     0.09000
N600        N  0.51558383  0.20651239  0.93304938     0.65400
H601        H  0.48854830  0.11864038  0.93982038     0.18300
N602        N  0.38611208  0.08710522  0.00035697     0.75800
H603        H  0.40834527  0.17371310  0.99069000     0.09800
C604        C  0.47383035  0.26942565  0.94592428     0.03500
C605        C  0.49089259  0.31695501  0.95022848    -0.05200
C606        C  0.50816169  0.33862422  0.97535573    -0.23600
C607        C  0.50981530  0.31151366  0.99624666     0.12700
C608        C  0.49420374  0.26418378  0.99167002    -0.12800
N609        N  0.45120049  0.24825303  0.92089658     0.64400
H610        H  0.48763776  0.33617198  0.93389028     0.12300
N611        N  0.52613279  0.33087554  0.02226482     0.61000
H612        H  0.49583116  0.24376071  0.00782979     0.08400
O613        O  0.34403652  0.06580580  0.99366478    -0.40400
O614        O  0.40003364  0.09153099  0.02428074    -0.39600
O615        O  0.55450250  0.23227536  0.94478415    -0.39600
O616        O  0.51173418  0.19944185  0.90866186    -0.37300
O617        O  0.49819199  0.32646961  0.03792824    -0.38200
O618        O  0.56584033  0.34211186  0.03110192    -0.34400
O619        O  0.40860872  0.22879926  0.91747061    -0.35800
O620        O  0.47353419  0.25960517  0.90122951    -0.40100
C621        C  0.42268822  0.93725016  0.84501443    -0.13800
C622        C  0.45960328  0.96989825  0.83214779     0.16600
C623        C  0.49853811  0.00490005  0.84720013     0.02900
C624        C  0.50003193  0.00622555  0.87463626    -0.12300
C625        C  0.46372196  0.97240339  0.88759404    -0.03300
C626        C  0.42451167  0.93785191  0.87238627     0.02200
C627        C  0.45657921  0.96611816  0.80309161     0.09000
N628        N  0.53714046  0.03893449  0.83501523     0.65400
H629        H  0.53059198  0.03258358  0.88588809     0.18300
N630        N  0.38597997  0.90318186  0.88439517     0.86600
H631        H  0.39248203  0.91043772  0.83371023     0.09800
C632        C  0.47758512  0.94607890  0.79054693     0.03500
C633        C  0.47411526  0.94287869  0.76318936    -0.05200
C634        C  0.44891931  0.95819203  0.74761549    -0.23600
C635        C  0.42602599  0.97625492  0.76022872     0.12700
C636        C  0.43024995  0.98027203  0.78772572    -0.12800
N637        N  0.50141566  0.92742962  0.80530378     0.64400
H638        H  0.49163658  0.92849103  0.75402008     0.12300
N639        N  0.40015787  0.99267613  0.74551242     0.61000
H640        H  0.41316552  0.99488768  0.79714854     0.08400
O641        O  0.37947450  0.86252899  0.88628967    -0.40400
O642        O  0.35380036  0.90990182  0.88723272    -0.39600
O643        O  0.54326610  0.07928835  0.83221768    -0.39600
O644        O  0.57003287  0.03279049  0.83359759    -0.37300
O645        O  0.35823316  0.96529084  0.73977664    -0.38200
O646        O  0.41697013  0.03589581  0.74276658    -0.34400
O647        O  0.47969020  0.88574711  0.81220162    -0.35800
O648        O  0.54396971  0.94785640  0.80573450    -0.40100
C649        C  0.68005709  0.17217147  0.97623654    -0.13800
C650        C  0.69783935  0.20348755  0.99800533     0.16600
C651        C  0.67046296  0.19579905  0.01830755     0.02900
C652        C  0.62636542  0.15729860  0.01677777    -0.12300
C653        C  0.60799898  0.12514190  0.99521421    -0.03300
C654        C  0.63547773  0.13337069  0.97457009     0.02200
C655        C  0.74495959  0.24409131  0.99956551     0.09000
N656        N  0.68728720  0.22641040  0.04096610     0.65400
H657        H  0.60650802  0.15269444  0.03291515     0.18300
N658        N  0.61911870  0.10275147  0.95195239     0.75800
H659        H  0.70090121  0.17792509  0.96044105     0.09800
C660        C  0.78202394  0.23922531  0.00844832     0.03500
C661        C  0.82587963  0.27843361  0.01135351    -0.05200
C662        C  0.83404361  0.32310342  0.00532517    -0.23600
C663        C  0.79691163  0.32786887  0.99581322     0.12700
C664        C  0.75279395  0.28849555  0.99323209    -0.12800
N665        N  0.77552263  0.19471893  0.01515060     0.64400
H666        H  0.85383495  0.27387127  0.01848876     0.12300
N667        N  0.80298509  0.37252409  0.98989526     0.61000
H668        H  0.72442723  0.29267273  0.98656968     0.08400
O669        O  0.63043932  0.07256590  0.95013141    -0.40400
O670        O  0.60206966  0.11237045  0.93186824    -0.39600
O671        O  0.67328924  0.25412377  0.04402175    -0.39600
O672        O  0.70766519  0.21860442  0.06014214    -0.37300
O673        O  0.80397040  0.38411773  0.96640614    -0.38200
O674        O  0.79691327  0.39506003  0.00694598    -0.34400
O675        O  0.78619777  0.17348389  0.99987307    -0.35800
O676        O  0.76814917  0.18143915  0.03820146    -0.40100
C677        C  0.21927825  0.69635221  0.01533428    -0.13800
C678        C  0.24781753  0.69561800  0.99780203     0.16600
C679        C  0.23543607  0.65294586  0.98509204     0.02900
C680        C  0.19395761  0.61288093  0.98901265    -0.12300
C681        C  0.16469996  0.61400306  0.00587599    -0.03300
C682        C  0.17815695  0.65610386  0.01950827     0.02200
C683        C  0.29084378  0.73955062  0.99404455     0.09000
N684        N  0.26476358  0.64936528  0.96856464     0.65400
H685        H  0.18388590  0.58079525  0.97825135     0.18300
N686        N  0.14898080  0.65964511  0.03605793     0.75800
H687        H  0.22841273  0.72880993  0.02533866     0.09800
C688        C  0.30176643  0.75930812  0.96937918     0.03500
C689        C  0.34354150  0.80024029  0.96718005    -0.05200
C690        C  0.37393387  0.82370925  0.98932179    -0.23600
C691        C  0.36146461  0.80522613  0.01412974     0.12700
C692        C  0.32087233  0.76311222  0.01613179    -0.12800
N693        N  0.26971591  0.74050700  0.94677873     0.64400
H694        H  0.35157887  0.81463078  0.94805982     0.12300
N695        N  0.38935047  0.82840624  0.03760278     0.61000
H696        H  0.31246036  0.74889459  0.03526063     0.08400
O697        O  0.12454260  0.67557569  0.02707866    -0.40400
O698        O  0.15667755  0.65905948  0.06046500    -0.39600
O699        O  0.29986912  0.65030137  0.97875317    -0.39600
O700        O  0.25048124  0.63452664  0.94518523    -0.37300
O701        O  0.38442649  0.85886142  0.04856163    -0.38200
O702        O  0.40767378  0.80939784  0.05084865    -0.34400
O703        O  0.23718422  0.74783456  0.94448183    -0.35800
O704        O  0.28034261  0.72837630  0.92674016    -0.40100
C705        C  0.95612956  0.44162585  0.86779262    -0.13800
C706        C  0.95712804  0.48059225  0.85641574     0.16600
C707        C  0.95314936  0.51205051  0.87226903     0.02900
C708        C  0.94983633  0.50511329  0.89906293    -0.12300
C709        C  0.95100077  0.46742590  0.91089844    -0.03300
C710        C  0.95303097  0.43472965  0.89477820     0.02200
C711        C  0.96297782  0.48835721  0.82810915     0.09000
N712        N  0.95582365  0.55315211  0.86183256     0.65400
H713        H  0.94846000  0.53086116  0.91091541     0.18300
N714        N  0.95471763  0.39599178  0.90557335     0.75800
H715        H  0.95880343  0.41696673  0.85572596     0.09800
C716        C  0.00391735  0.49961806  0.81817550     0.03500
C717        C  0.00829841  0.50587677  0.79136825    -0.05200
C718        C  0.97260623  0.50181729  0.77379212    -0.23600
C719        C  0.93175350  0.49151644  0.78399268     0.12700
C720        C  0.92730976  0.48456773  0.81086291    -0.12800
N721        N  0.04203791  0.50660186  0.83525655     0.64400
H722        H  0.04019208  0.51425889  0.78435810     0.12300
N723        N  0.89504940  0.48976816  0.76774108     0.61000
H724        H  0.89588625  0.47661958  0.81838087     0.08400
O725        O  0.99262579  0.39932110  0.91117409    -0.40400
O726        O  0.91912344  0.35625939  0.90414499    -0.39600
O727        O  0.92027622  0.55517103  0.85789432    -0.39600
O728        O  0.99396715  0.59020496  0.86215907    -0.37300
O729        O  0.85720151  0.45223451  0.76535329    -0.38200
O730        O  0.89692424  0.52741965  0.76172724    -0.34400
O731        O  0.05284075  0.47577629  0.83606256    -0.35800
O732        O  0.06959637  0.54667162  0.84538467    -0.40100
C733        C  0.73007202  0.71196554  0.98156345    -0.13800
C734        C  0.76731721  0.72283325  0.99989975     0.16600
C735        C  0.76033650  0.69086284  0.01989590     0.02900
C736        C  0.71761643  0.64997470  0.02116759    -0.12300
C737        C  0.68021809  0.63893784  0.00285963    -0.03300
C738        C  0.68727477  0.67096809  0.98277751     0.02200
C739        C  0.81253707  0.76774965  0.99827886     0.09000
N740        N  0.79646823  0.69897254  0.03907912     0.65400
H741        H  0.71368579  0.62688006  0.03701021     0.18300
N742        N  0.65089167  0.66395571  0.96412120     0.75800
H743        H  0.73368957  0.73627445  0.96650099     0.09800
C744        C  0.83383659  0.78117243  0.97483403     0.03500
C745        C  0.87661846  0.82217400  0.97423989    -0.05200
C746        C  0.90036468  0.85134217  0.99669835    -0.23600
C747        C  0.87805204  0.83891359  0.01985659     0.12700
C748        C  0.83490831  0.79807677  0.02038752    -0.12800
N749        N  0.81376198  0.75224130  0.95158498     0.64400
H750        H  0.89203990  0.83008474  0.95599377     0.12300
N751        N  0.89951029  0.86577460  0.04355078     0.61000
H752        H  0.81897005  0.78991943  0.03845132     0.08400
O753        O  0.64830882  0.64852783  0.94138097    -0.40400
O754        O  0.62817783  0.68268459  0.96838060    -0.39600
O755        O  0.79570023  0.71012507  0.06229606    -0.39600
O756        O  0.82333097  0.68560565  0.03422290    -0.37300
O757        O  0.89196902  0.89747895  0.04957147    -0.38200
O758        O  0.91633306  0.85049203  0.06084191    -0.34400
O759        O  0.79829632  0.76582493  0.93254532    -0.35800
O760        O  0.82045701  0.71905393  0.94805669    -0.40100
C761        C  0.23982842  0.19665841  0.98312828    -0.13800
C762        C  0.26072428  0.23118170  0.00343103     0.16600
C763        C  0.23868685  0.22289372  0.02640114     0.02900
C764        C  0.19708988  0.18141559  0.02869249    -0.12300
C765        C  0.17530992  0.14686791  0.00829517    -0.03300
C766        C  0.19768992  0.15520306  0.98521445     0.02200
C767        C  0.30481249  0.27587686  0.00029557     0.09000
N768        N  0.25833351  0.25623590  0.04784668     0.65400
H769        H  0.18137835  0.17687501  0.04665591     0.18300
N770        N  0.17783543  0.12280184  0.96334271     0.75800
H771        H  0.25575771  0.20244194  0.96514323     0.09800
C772        C  0.34451332  0.27574705  0.99574546     0.03500
C773        C  0.38513068  0.31790411  0.99300232    -0.05200
C774        C  0.38767669  0.36118170  0.99418767    -0.23600
C775        C  0.34795039  0.36166350  0.99795193     0.12700
C776        C  0.30724743  0.31935844  0.00134966    -0.12800
N777        N  0.34441747  0.23307179  0.99396435     0.64400
H778        H  0.41506868  0.31672028  0.98959868     0.12300
N779        N  0.34752862  0.40415852  0.99653448     0.61000
H780        H  0.27695852  0.32034619  0.00394482     0.08400
O781        O  0.19217384  0.09567869  0.95933895    -0.40400
O782        O  0.15418399  0.12860776  0.94523358    -0.39600
O783        O  0.24336547  0.28294870  0.05143736    -0.39600
O784        O  0.28352581  0.25248559  0.06583246    -0.37300
O785        O  0.33975683  0.41730910  0.97458120    -0.38200
O786        O  0.34588908  0.42318838  0.01709601    -0.34400
O787        O  0.34249122  0.21625707  0.97173200    -0.35800
O788        O  0.35767468  0.21931921  0.01391004    -0.40100
C789        C  0.06328621  0.78399889  0.00459325    -0.13800
C790        C  0.03041897  0.75377038  0.02069115     0.16600
C791        C  0.01140933  0.77148766  0.03683761     0.02900
C792        C  0.02279447  0.81808083  0.03505540    -0.12300
C793        C  0.05214231  0.84699642  0.01691072    -0.03300
C794        C  0.07396635  0.83015873  0.00236638     0.02200
C795        C  0.01617187  0.70386219  0.01948257     0.09000
N796        N  0.97741540  0.74164912  0.05323354     0.65400
H797        H  0.00523683  0.83025494  0.04608370     0.18300
N798        N  0.10584382  0.85896341  0.98460446     0.75800
H799        H  0.07949838  0.77111751  0.99289287     0.09800
C800        C  0.99872622  0.67816761  0.99552142     0.03500
C801        C  0.99533366  0.63502746  0.99306272    -0.05200
C802        C  0.00859344  0.61630910  0.01420522    -0.23600
C803        C  0.02072022  0.63935039  0.03905579     0.12700
C804        C  0.02516710  0.68338576  0.04138030    -0.12800
N805        N  0.98607540  0.69634093  0.97316661     0.64400
H806        H  0.98437958  0.61711985  0.97403250     0.12300
N807        N  0.03083709  0.61990863  0.06172614     0.61000
H808        H  0.03777121  0.70256672  0.06001746     0.08400
O809        O  0.09397095  0.85297475  0.96036416    -0.40400
O810        O  0.14747805  0.88171568  0.99249999    -0.39600
O811        O  0.98685764  0.74546557  0.07768357    -0.39600
O812        O  0.93648494  0.71897228  0.04387881    -0.37300
O813        O  0.07073429  0.63984868  0.07272611    -0.38200
O814        O  0.99872870  0.59068293  0.07413652    -0.34400
O815        O  0.01190870  0.71241627  0.95509727    -0.35800
O816        O  0.94546680  0.68628024  0.96877065    -0.40100
C817        C  0.04111221  0.29912078  0.00570293    -0.13800
C818        C  0.00997862  0.26447864  0.98726543     0.16600
C819        C  0.97636252  0.27018535  0.97321762     0.02900
C820        C  0.97301808  0.30921852  0.97861879    -0.12300
C821        C  0.00196457  0.34219441  0.99850198    -0.03300
C822        C  0.03724089  0.33767529  0.01155594     0.02200
C823        C  0.00801714  0.21929133  0.98685865     0.09000
N824        N  0.94325147  0.23486685  0.95490751     0.65400
H825        H  0.94548993  0.31184046  0.96853979     0.18300
N826        N  0.06855488  0.37113886  0.03129494     0.75800
H827        H  0.06692715  0.29477944  0.01670649     0.09800
C828        C  0.03495563  0.21057359  0.97159742     0.03500
C829        C  0.03669877  0.16974571  0.97494796    -0.05200
C830        C  0.01288142  0.13807763  0.99392658    -0.23600
C831        C  0.98455680  0.14621173  0.00845493     0.12700
C832        C  0.98206952  0.18633207  0.00460352    -0.12800
N833        N  0.06272503  0.24406776  0.95382741     0.64400
H834        H  0.05915839  0.16443465  0.96395847     0.12300
N835        N  0.95919578  0.11485436  0.02780554     0.61000
H836        H  0.96135360  0.19292934  0.01646039     0.08400
O837        O  0.10608940  0.40413801  0.02521727    -0.40400
O838        O  0.06293130  0.36236590  0.05506081    -0.39600
O839        O  0.90543234  0.20458168  0.96218025    -0.39600
O840        O  0.94811042  0.23959728  0.93083166    -0.37300
O841        O  0.91823264  0.08406580  0.02182675    -0.38200
O842        O  0.97404801  0.12468194  0.05159618    -0.34400
O843        O  0.10400042  0.27229514  0.96096044    -0.35800
O844        O  0.04878347  0.23906133  0.92989086    -0.40100
C845        C  0.99343527  0.98331450  0.80763800    -0.13800
C846        C  0.03156163  0.02223913  0.82035099     0.16600
C847        C  0.06200425  0.05836372  0.80513146     0.02900
C848        C  0.05332072  0.05519800  0.77776770    -0.12300
C849        C  0.01464840  0.01654013  0.76510730    -0.03300
C850        C  0.98479223  0.97999104  0.78044438     0.02200
C851        C  0.03863126  0.02230840  0.84935345     0.09000
N852        N  0.10238217  0.09790064  0.81694815     0.65400
H853        H  0.07660409  0.08357641  0.76642001     0.18300
N854        N  0.94587585  0.93869180  0.76878147     0.75800
H855        H  0.97000938  0.95502244  0.81899848     0.09800
C856        C  0.03796006  0.05530926  0.86595047     0.03500
C857        C  0.03877053  0.04984671  0.89312209    -0.05200
C858        C  0.03793557  0.01072105  0.90402209    -0.23600
C859        C  0.03963263  0.97837898  0.88745119     0.12700
C860        C  0.04057781  0.98477350  0.86053430    -0.12800
N861        N  0.03200721  0.09185065  0.85550684     0.64400
H862        H  0.03694047  0.07463980  0.90556446     0.12300
N863        N  0.04030609  0.93868426  0.89762234     0.61000
H864        H  0.04114376  0.95917136  0.84809201     0.08400
O865        O  0.90693216  0.93272634  0.77005158    -0.40400
O866        O  0.94961472  0.90460670  0.76232738    -0.39600
O867        O  0.13748626  0.09528956  0.82175187    -0.39600
O868        O  0.10635401  0.13757380  0.81581773    -0.37300
O869        O  0.00400453  0.89955000  0.89642113    -0.38200
O870        O  0.07772374  0.94061487  0.90244299    -0.34400
O871        O  0.99338406  0.08209728  0.84531402    -0.35800
O872        O  0.06120642  0.13370054  0.86209876    -0.40100
C873        C  0.50342395  0.45619464  0.47862229    -0.13800
C874        C  0.49516708  0.49016943  0.48776021     0.16600
C875        C  0.48972793  0.51929815  0.46951008     0.02900
C876        C  0.49155196  0.51321967  0.44267495    -0.12300
C877        C  0.49972648  0.47897657  0.43338413    -0.03300
C878        C  0.50610211  0.45054495  0.45198420     0.02200
C879        C  0.49372031  0.49502240  0.51647397     0.09000
N880        N  0.48187005  0.55492772  0.47785371     0.65400
H881        H  0.48713389  0.53596529  0.42909838     0.18300
N882        N  0.51563714  0.41574856  0.44438574     0.75800
H883        H  0.50861207  0.43417889  0.49241609     0.09800
C884        C  0.46139784  0.45800362  0.53031940     0.03500
C885        C  0.46250181  0.46232804  0.55752596    -0.05200
C886        C  0.49565759  0.50311373  0.57189386    -0.23600
C887        C  0.52845150  0.53978520  0.55793359     0.12700
C888        C  0.52714577  0.53556118  0.53059462    -0.12800
N889        N  0.42639528  0.41602722  0.51692292     0.64400
H890        H  0.43670132  0.43335813  0.56742310     0.12300
N891        N  0.56287996  0.58212459  0.57091341     0.61000
H892        H  0.55284512  0.56403118  0.52036913     0.08400
O893        O  0.48378827  0.37381013  0.44144804    -0.40400
O894        O  0.55611832  0.42495458  0.44655676    -0.39600
O895        O  0.51433489  0.59664879  0.48018083    -0.39600
O896        O  0.44175284  0.54646184  0.47738031    -0.37300
O897        O  0.60262259  0.58930167  0.57441407    -0.38200
O898        O  0.55686474  0.61630603  0.57124597    -0.34400
O899        O  0.42926327  0.37986618  0.51780778    -0.35800
O900        O  0.38902728  0.41251493  0.50913610    -0.40100
C901        C  0.49921362  0.42763737  0.13256263    -0.13800
C902        C  0.53520585  0.46054331  0.14989389     0.16600
C903        C  0.57659701  0.49193666  0.14001039     0.02900
C904        C  0.58047371  0.49209475  0.11309640    -0.12300
C905        C  0.54384251  0.46088767  0.09530245    -0.03300
C906        C  0.50325402  0.42723071  0.10553689     0.02200
C907        C  0.52877668  0.46267686  0.17804316     0.09000
N908        N  0.61531751  0.52353794  0.15712491     0.65400
H909        H  0.61244390  0.51762885  0.10609729     0.18300
N910        N  0.46555792  0.39290801  0.08886577     0.75800
H911        H  0.46745529  0.40265300  0.14000098     0.09800
C912        C  0.52252351  0.49771172  0.18818514     0.03500
C913        C  0.51675759  0.49915723  0.21475083    -0.05200
C914        C  0.51624853  0.46567652  0.23192368    -0.23600
C915        C  0.52168053  0.42993396  0.22148002     0.12700
C916        C  0.52828588  0.42910309  0.19487848    -0.12800
N917        N  0.52000175  0.53102296  0.17150937     0.64400
H918        H  0.51213865  0.52667613  0.22184585     0.12300
N919        N  0.51890746  0.39312903  0.23715573     0.61000
H920        H  0.53239741  0.40158328  0.18721380     0.08400
O921        O  0.43277525  0.39868304  0.08205213    -0.40400
O922        O  0.46087112  0.35325079  0.08555310    -0.39600
O923        O  0.64183739  0.51062376  0.16686164    -0.39600
O924        O  0.62839338  0.56640092  0.15758542    -0.37300
O925        O  0.48042565  0.35870558  0.24067609    -0.38200
O926        O  0.55328175  0.38909397  0.24125331    -0.34400
O927        O  0.48214699  0.52135479  0.16007792    -0.35800
O928        O  0.55230055  0.57283654  0.17305692    -0.40100
C929        C  0.50003262  0.99611180  0.47253614    -0.13800
C930        C  0.51473883  0.04301373  0.47830238     0.16600
C931        C  0.52490977  0.07398499  0.45759854     0.02900
C932        C  0.52016678  0.05752673  0.43180252    -0.12300
C933        C  0.50658093  0.01078453  0.42614769    -0.03300
C934        C  0.49608114  0.97988153  0.44689218     0.02200
C935        C  0.51930326  0.05764378  0.50621731     0.09000
N936        N  0.54295162  0.12267439  0.46248117     0.65400
H937        H  0.52903740  0.08198928  0.41621330     0.18300
N938        N  0.47998965  0.93154955  0.44223248     0.75800
H939        H  0.49150222  0.97175765  0.48817428     0.09800
C940        C  0.48985486  0.07016717  0.51589517     0.03500
C941        C  0.48847926  0.07328404  0.54297146    -0.05200
C942        C  0.51537785  0.06328738  0.56095475    -0.23600
C943        C  0.54713713  0.05397294  0.55117520     0.12700
C944        C  0.54891283  0.05155725  0.52410179    -0.12800
N945        N  0.45793500  0.07527382  0.49866565     0.64400
H946        H  0.46399779  0.08073126  0.54987000     0.12300
N947        N  0.57469338  0.04226525  0.56812972     0.61000
H948        H  0.57158468  0.04172527  0.51693714     0.08400
O949        O  0.43790390  0.90308401  0.43832676    -0.40400
O950        O  0.50643898  0.91636661  0.44753134    -0.39600
O951        O  0.58493841  0.14873475  0.46871973    -0.39600
O952        O  0.52023590  0.14078369  0.45392523    -0.37300
O953        O  0.55936875  0.00030937  0.57398197    -0.38200
O954        O  0.61666686  0.07109274  0.57224215    -0.34400
O955        O  0.42022779  0.03956935  0.49131632    -0.35800
O956        O  0.46244475  0.11506494  0.49640951    -0.40100
C957        C  0.51509209  0.69134179  0.31557747    -0.13800
C958        C  0.49526590  0.69760986  0.33675593     0.16600
C959        C  0.47834157  0.66167820  0.35503476     0.02900
C960        C  0.48259112  0.62203447  0.35215338    -0.12300
C961        C  0.50110242  0.61506968  0.33051451    -0.03300
C962        C  0.51735525  0.65066823  0.31205816     0.02200
C963        C  0.49215758  0.74131377  0.33881591     0.09000
N964        N  0.45228055  0.66209579  0.37500384     0.65400
H965        H  0.46781326  0.59457051  0.36596420     0.18300
N966        N  0.53585420  0.64604131  0.28932721     0.75800
H967        H  0.52829088  0.71803277  0.30122667     0.09800
C968        C  0.50973448  0.77161698  0.36130908     0.03500
C969        C  0.50867946  0.81333508  0.36164310    -0.05200
C970        C  0.49180559  0.82774363  0.33969336    -0.23600
C971        C  0.47267685  0.79654433  0.31754005     0.12700
C972        C  0.47305771  0.75428872  0.31731592    -0.12800
N973        N  0.53262950  0.76304736  0.38326276     0.64400
H974        H  0.52428119  0.83622511  0.37890969     0.12300
N975        N  0.45256057  0.80695250  0.29501332     0.61000
H976        H  0.45867779  0.73156654  0.29993279     0.08400
O977        O  0.57829913  0.66761202  0.28879881    -0.40400
O978        O  0.51061219  0.63025532  0.26819401    -0.39600
O979        O  0.41290470  0.65461091  0.36861718    -0.39600
O980        O  0.46325455  0.65772800  0.39848395    -0.37300
O981        O  0.47461820  0.82326904  0.27540990    -0.38200
O982        O  0.41046731  0.79135740  0.29278067    -0.34400
O983        O  0.57208148  0.77065004  0.38162984    -0.35800
O984        O  0.51882102  0.75972988  0.40553913    -0.40100
C985        C  0.51798779  0.26881393  0.35264897    -0.13800
C986        C  0.50700663  0.24878239  0.32718978     0.16600
C987        C  0.49774069  0.27267932  0.30688889     0.02900
C988        C  0.50036821  0.31534777  0.31216341    -0.12300
C989        C  0.51245337  0.33609843  0.33749700    -0.03300
C990        C  0.52087273  0.31167095  0.35795639     0.02200
C991        C  0.50187005  0.20153966  0.32253640     0.09000
N992        N  0.48734741  0.25515932  0.28043955     0.65400
H993        H  0.49452825  0.33321339  0.29593193     0.18300
N994        N  0.53168615  0.32927198  0.38442260     0.75800
H995        H  0.52354935  0.25060287  0.36877548     0.09800
C996        C  0.53505704  0.19062199  0.33220011     0.03500
C997        C  0.52703234  0.14490573  0.32898947    -0.05200
C998        C  0.48670599  0.10909768  0.31565263    -0.23600
C999        C  0.45383309  0.12034983  0.30573196     0.12700
C1000       C  0.46150652  0.16561427  0.30945721    -0.12800
N1001       N  0.57769913  0.22578826  0.34476022     0.64400
H1002       H  0.55277194  0.13749584  0.33688438     0.12300
N1003       N  0.41091801  0.08554139  0.29324907     0.61000
H1004       H  0.43470357  0.17218237  0.30275539     0.08400
O1005       O  0.57214859  0.34853673  0.39453241    -0.40400
O1006       O  0.50019152  0.31707346  0.39896348    -0.39600
O1007       O  0.44761508  0.23891407  0.26963983    -0.39600
O1008       O  0.51928710  0.26613716  0.26642629    -0.37300
O1009       O  0.37785276  0.06372750  0.30673459    -0.38200
O1010       O  0.40353255  0.08488309  0.26873725    -0.34400
O1011       O  0.58659397  0.22432647  0.36897409    -0.35800
O1012       O  0.60949372  0.25109696  0.33101703    -0.40100
C1013       C  0.53006600  0.99254880  0.13682208    -0.13800
C1014       C  0.49861470  0.94822527  0.14502487     0.16600
C1015       C  0.47077318  0.91261042  0.12600773     0.02900
C1016       C  0.47342858  0.92225313  0.09938603    -0.12300
C1017       C  0.50280842  0.96737542  0.09109572    -0.03300
C1018       C  0.53241075  0.00241128  0.11019523     0.02200
C1019       C  0.49154093  0.94197846  0.17324137     0.09000
N1020       N  0.43912499  0.86661081  0.13343240     0.65400
H1021       H  0.45108957  0.89455240  0.08519521     0.18300
N1022       N  0.56536596  0.04805238  0.10294865     0.75800
H1023       H  0.55178356  0.02024007  0.15123616     0.09800
C1024       C  0.52544640  0.94565932  0.19223629     0.03500
C1025       C  0.52003973  0.94659837  0.21894889    -0.05200
C1026       C  0.48144982  0.94471805  0.22716948    -0.23600
C1027       C  0.44668468  0.93902882  0.20807115     0.12700
C1028       C  0.45196070  0.93759881  0.18145218    -0.12800
N1029       N  0.56574797  0.94898144  0.18466581     0.64400
H1030       H  0.54693049  0.95066239  0.23328954     0.12300
N1031       N  0.40558931  0.93426798  0.21537575     0.61000
H1032       H  0.42561747  0.93473696  0.16707129     0.08400
O1033       O  0.55725669  0.08074396  0.10398897    -0.40400
O1034       O  0.60536427  0.05759922  0.10096884    -0.39600
O1035       O  0.39756380  0.85336351  0.13215686    -0.39600
O1036       O  0.45104999  0.83668835  0.13552585    -0.37300
O1037       O  0.37169132  0.89400469  0.21728340    -0.38200
O1038       O  0.40021467  0.96888889  0.21424861    -0.34400
O1039       O  0.60211835  0.98804831  0.18606390    -0.35800
O1040       O  0.56699520  0.91227087  0.18159461    -0.40100
C1041       C  0.98885839  0.55637904  0.47269135    -0.13800
C1042       C  0.98388239  0.52059634  0.48922519     0.16600
C1043       C  0.97935572  0.47983150  0.47832640     0.02900
C1044       C  0.97963622  0.47518382  0.45144337    -0.12300
C1045       C  0.98479589  0.51074758  0.43459030    -0.03300
C1046       C  0.98924556  0.55181316  0.44552908     0.02200
C1047       C  0.97917535  0.52343703  0.51744879     0.09000
N1048       N  0.97541442  0.44304013  0.49450367     0.65400
H1049       H  0.97651505  0.44346131  0.44384505     0.18300
N1050       N  0.99436607  0.58920755  0.42953608     0.75800
H1051       H  0.99163208  0.58759186  0.48083513     0.09800
C1052       C  0.01540716  0.55503908  0.53528816     0.03500
C1053       C  0.01077514  0.55168167  0.56221697    -0.05200
C1054       C  0.97006209  0.51768005  0.57178384    -0.23600
C1055       C  0.93295400  0.48796908  0.55357451     0.12700
C1056       C  0.93798079  0.49105533  0.52683539    -0.12800
N1057       N  0.05755933  0.58959972  0.52648078     0.64400
H1058       H  0.03945627  0.57536065  0.57569219     0.12300
N1059       N  0.89037779  0.45300598  0.56178944     0.61000
H1060       H  0.90966262  0.46706305  0.51324374     0.08400
O1061       O  0.03288042  0.62560550  0.42928377    -0.40400
O1062       O  0.95960377  0.58991804  0.42032051    -0.39600
O1063       O  0.93768890  0.40558117  0.49453226    -0.39600
O1064       O  0.01079060  0.44459573  0.50474854    -0.37300
O1065       O  0.85958787  0.46236203  0.56339867    -0.38200
O1066       O  0.88043474  0.41101810  0.56186856    -0.34400
O1067       O  0.06678068  0.63129628  0.52532917    -0.35800
O1068       O  0.08877997  0.58072488  0.52542614    -0.40100
C1069       C  0.81493851  0.51987901  0.29733870    -0.13800
C1070       C  0.79178452  0.50513984  0.31965221     0.16600
C1071       C  0.80902402  0.49069081  0.34114088     0.02900
C1072       C  0.85029554  0.49285969  0.34043232    -0.12300
C1073       C  0.87477811  0.50912419  0.31842199    -0.03300
C1074       C  0.85617670  0.52190483  0.29644070     0.02200
C1075       C  0.74867232  0.50338097  0.31992421     0.09000
N1076       N  0.78501210  0.47393699  0.36382332     0.65400
H1077       H  0.86338126  0.48219835  0.35735588     0.18300
N1078       N  0.87918675  0.53852628  0.27341735     0.75800
H1079       H  0.80110524  0.53030181  0.28064248     0.09800
C1080       C  0.74679924  0.54128448  0.32984212     0.03500
C1081       C  0.70474882  0.53663144  0.33221486    -0.05200
C1082       C  0.66471516  0.49478189  0.32442559    -0.23600
C1083       C  0.66679865  0.45766133  0.31331972     0.12700
C1084       C  0.70884794  0.46230925  0.31112914    -0.12800
N1085       N  0.78725235  0.58406799  0.33818911     0.64400
H1086       H  0.70328736  0.56520651  0.34083096     0.12300
N1087       N  0.62678946  0.41368667  0.30640464     0.61000
H1088       H  0.71043608  0.43310994  0.30354591     0.08400
O1089       O  0.90442421  0.58184022  0.27094850    -0.40400
O1090       O  0.86711039  0.51118089  0.25372355    -0.39600
O1091       O  0.76106002  0.43057946  0.36667251    -0.39600
O1092       O  0.79462479  0.50171226  0.38297867    -0.37300
O1093       O  0.61511825  0.40104213  0.28260907    -0.38200
O1094       O  0.61165015  0.38326732  0.32346887    -0.34400
O1095       O  0.80245653  0.61775400  0.32306810    -0.35800
O1096       O  0.80252851  0.59102552  0.36195050    -0.40100
C1097       C  0.28755355  0.47609543  0.32827578    -0.13800
C1098       C  0.28464620  0.48393596  0.35448206     0.16600
C1099       C  0.31304995  0.47901037  0.37405244     0.02900
C1100       C  0.34669907  0.47090623  0.36693785    -0.12300
C1101       C  0.35199685  0.46667109  0.34048559    -0.03300
C1102       C  0.32046933  0.46724432  0.32109755     0.02200
C1103       C  0.25001475  0.49491938  0.36046630     0.09000
N1104       N  0.30916686  0.48358111  0.40113399     0.65400
H1105       H  0.36987945  0.46989814  0.38223461     0.18300
N1106       N  0.32125181  0.45906224  0.29399104     0.75800
H1107       H  0.26396903  0.47688518  0.31316721     0.09800
C1108       C  0.24773245  0.53194291  0.34839060     0.03500
C1109       C  0.20947800  0.53562273  0.34974702    -0.05200
C1110       C  0.17363202  0.50357849  0.36354268    -0.23600
C1111       C  0.17741095  0.46841002  0.37716580     0.12700
C1112       C  0.21519830  0.46411527  0.37521501    -0.12800
N1113       N  0.28377280  0.56568066  0.33435139     0.64400
H1114       H  0.20757203  0.56334596  0.33966246     0.12300
N1115       N  0.14187709  0.43464736  0.39150591     0.61000
H1116       H  0.21600753  0.43491747  0.38405434     0.08400
O1117       O  0.29798877  0.41801890  0.28427733    -0.40400
O1118       O  0.33690564  0.49297598  0.27902102    -0.39600
O1119       O  0.28866232  0.44731721  0.41402701    -0.39600
O1120       O  0.33449725  0.52242190  0.41314963    -0.37300
O1121       O  0.14595292  0.43889429  0.41609903    -0.38200
O1122       O  0.11216845  0.39618798  0.38042565    -0.34400
O1123       O  0.27824583  0.56521960  0.30974356    -0.35800
O1124       O  0.31611453  0.60143350  0.34649878    -0.40100
C1125       C  0.08767529  0.56442390  0.20501907    -0.13800
C1126       C  0.07021872  0.51999885  0.19327479     0.16600
C1127       C  0.05868834  0.48187781  0.20969080     0.02900
C1128       C  0.06282981  0.48845718  0.23697718    -0.12300
C1129       C  0.07728379  0.53234091  0.24853890    -0.03300
C1130       C  0.09077212  0.57080219  0.23220390     0.02200
C1131       C  0.06433852  0.51425260  0.16403602     0.09000
N1132       N  0.03961064  0.43560556  0.19896730     0.65400
H1133       H  0.05172657  0.45834289  0.24903266     0.18300
N1134       N  0.10757127  0.61670099  0.24286603     0.75800
H1135       H  0.09857605  0.59450304  0.19297635     0.09800
C1136       C  0.04187337  0.53275716  0.14825843     0.03500
C1137       C  0.03648978  0.52632112  0.12096660    -0.05200
C1138       C  0.05167938  0.50033525  0.10876166    -0.23600
C1139       C  0.07506985  0.48279422  0.12432913     0.12700
C1140       C  0.08182113  0.49049278  0.15159463    -0.12800
N1141       N  0.02125205  0.55513106  0.15966575     0.64400
H1142       H  0.01759579  0.53912517  0.10937426     0.12300
N1143       N  0.09282835  0.45772840  0.11270509     0.61000
H1144       H  0.10065698  0.47754476  0.16310125     0.08400
O1145       O  0.08223416  0.63373481  0.24121154    -0.40400
O1146       O  0.14962703  0.64324020  0.24861461    -0.39600
O1147       O  0.06224436  0.41556099  0.20154710    -0.39600
O1148       O  0.99771380  0.41188009  0.19184022    -0.37300
O1149       O  0.13318746  0.47951380  0.10685237    -0.38200
O1150       O  0.07209193  0.41384317  0.11351602    -0.34400
O1151       O  0.03746241  0.59831612  0.15713023    -0.35800
O1152       O  0.98194510  0.53054261  0.16684017    -0.40100
C1153       C  0.97087100  0.06071623  0.52277618    -0.13800
C1154       C  0.94412612  0.01605041  0.51079138     0.16600
C1155       C  0.91875299  0.97800859  0.52658274     0.02900
C1156       C  0.92277219  0.98467910  0.55382594    -0.12300
C1157       C  0.95224341  0.02874765  0.56596392    -0.03300
C1158       C  0.97500859  0.06740012  0.55000710     0.02200
C1159       C  0.94909903  0.00887333  0.48292669     0.09000
N1160       N  0.89006115  0.93195823  0.51534445     0.65400
H1161       H  0.90476705  0.95463520  0.56562696     0.18300
N1162       N  0.00313957  0.11365712  0.56113113     0.75800
H1163       H  0.99087540  0.09033462  0.51113252     0.09800
C1164       C  0.94205184  0.03352995  0.46231727     0.03500
C1165       C  0.95156819  0.02859879  0.43690751    -0.05200
C1166       C  0.96911907  0.00010736  0.43142901    -0.23600
C1167       C  0.97645929  0.97576028  0.45230700     0.12700
C1168       C  0.96624369  0.98022775  0.47746355    -0.12800
N1169       N  0.92562052  0.06405878  0.46683960     0.64400
H1170       H  0.94598492  0.04803610  0.42150115     0.12300
N1171       N  0.99624642  0.94790770  0.44881769     0.61000
H1172       H  0.97371361  0.96256174  0.49318071     0.08400
O1173       O  0.98711565  0.14008020  0.56187231    -0.40400
O1174       O  0.04551387  0.13112702  0.56441608    -0.39600
O1175       O  0.90197031  0.90214928  0.51864304    -0.39600
O1176       O  0.84934717  0.91848329  0.50764110    -0.37300
O1177       O  0.03838445  0.96559300  0.45419621    -0.38200
O1178       O  0.97104983  0.90415709  0.44623353    -0.34400
O1179       O  0.95269172  0.10759610  0.46746601    -0.35800
O1180       O  0.88352177  0.04833659  0.46392389    -0.40100
C1181       C  0.05034371  0.73864520  0.32584336    -0.13800
C1182       C  0.02872545  0.74287488  0.34659731     0.16600
C1183       C  0.01064675  0.70614144  0.36420011     0.02900
C1184       C  0.01382874  0.66620153  0.36048788    -0.12300
C1185       C  0.03385157  0.66109850  0.33907800    -0.03300
C1186       C  0.05288648  0.69844216  0.32190462     0.02200
C1187       C  0.02563907  0.78588888  0.34925131     0.09000
N1188       N  0.98571137  0.70699518  0.38469043     0.65400
H1189       H  0.99773907  0.63761023  0.37348814     0.18300
N1190       N  0.07520000  0.69627745  0.30036591     0.75800
H1191       H  0.06503849  0.76669943  0.31237187     0.09800
C1192       C  0.05062389  0.81946402  0.36971554     0.03500
C1193       C  0.04951107  0.86091242  0.37060271    -0.05200
C1194       C  0.02440802  0.87098944  0.35117318    -0.23600
C1195       C  0.99848259  0.83671241  0.33098949     0.12700
C1196       C  0.99945299  0.79492590  0.33016543    -0.12800
N1197       N  0.08002335  0.81370416  0.38876437     0.64400
H1198       H  0.07046997  0.88649806  0.38615713     0.12300
N1199       N  0.97020415  0.84309035  0.31149214     0.61000
H1200       H  0.97976943  0.76939920  0.31436692     0.08400
O1201       O  0.11767180  0.71434375  0.30297135    -0.40400
O1202       O  0.05446254  0.68602541  0.27775330    -0.39600
O1203       O  0.94416898  0.69306046  0.37967817    -0.39600
O1204       O  0.00145638  0.70982062  0.40814525    -0.37300
O1205       O  0.98308877  0.85455298  0.28900225    -0.38200
O1206       O  0.92903303  0.82675012  0.31475016    -0.34400
O1207       O  0.11860119  0.82334266  0.38305389    -0.35800
O1208       O  0.07207981  0.80980313  0.41242414    -0.40100
C1209       C  0.02655760  0.22342114  0.31201957    -0.13800
C1210       C  0.01892823  0.23727566  0.33582997     0.16600
C1211       C  0.01004028  0.20654342  0.35681619     0.02900
C1212       C  0.00827118  0.16365912  0.35344004    -0.12300
C1213       C  0.01559753  0.14977169  0.32950102    -0.03300
C1214       C  0.02593923  0.18126179  0.30882845     0.02200
C1215       C  0.01876931  0.28262701  0.33780251     0.09000
N1216       N  0.00288912  0.21815047  0.38187884     0.65400
H1217       H  0.00011456  0.14061668  0.36969378     0.18300
N1218       N  0.03602427  0.17129230  0.28423458     0.75800
H1219       H  0.03216118  0.24503496  0.29528437     0.09800
C1220       C  0.05173402  0.32442779  0.32696842     0.03500
C1221       C  0.04943546  0.36527068  0.32812933    -0.05200
C1222       C  0.01607684  0.36712184  0.34091310    -0.23600
C1223       C  0.98280420  0.32556815  0.35147887     0.12700
C1224       C  0.98384528  0.28397643  0.34935498    -0.12800
N1225       N  0.08982600  0.32732229  0.31624026     0.64400
H1226       H  0.07628695  0.39694524  0.32063915     0.12300
N1227       N  0.94692169  0.32461116  0.36383139     0.61000
H1228       H  0.95669751  0.25242367  0.35662460     0.08400
O1229       O  0.07668888  0.18564675  0.28055340    -0.40400
O1230       O  0.00649713  0.15780994  0.26487166    -0.39600
O1231       O  0.96376917  0.19577793  0.38957539    -0.39600
O1232       O  0.03658346  0.24177356  0.39833181    -0.37300
O1233       O  0.91093036  0.31561633  0.35019640    -0.38200
O1234       O  0.94735378  0.32299606  0.38837453    -0.34400
O1235       O  0.09389310  0.33400283  0.29217715    -0.35800
O1236       O  0.12394488  0.33498859  0.33140446    -0.40100
C1237       C  0.78770302  0.98265672  0.29245970    -0.13800
C1238       C  0.77251184  0.98895631  0.31542486     0.16600
C1239       C  0.79727105  0.99370414  0.33960702     0.02900
C1240       C  0.83820997  0.99450418  0.34038038    -0.12300
C1241       C  0.85439036  0.98932555  0.31730004    -0.03300
C1242       C  0.82781191  0.98186840  0.29318260     0.02200
C1243       C  0.72803410  0.98490576  0.31404855     0.09000
N1244       N  0.78082489  0.99698181  0.36352605     0.65400
H1245       H  0.85761091  0.99986967  0.35911326     0.18300
N1246       N  0.83974055  0.97114463  0.26943604     0.75800
H1247       H  0.76751250  0.97681867  0.27395771     0.09800
C1248       C  0.72265589  0.02344463  0.30917102     0.03500
C1249       C  0.67973898  0.01814384  0.30952093    -0.05200
C1250       C  0.64238652  0.97466844  0.31439001    -0.23600
C1251       C  0.64757240  0.93575159  0.31768057     0.12700
C1252       C  0.69031768  0.94115038  0.31758498    -0.12800
N1253       N  0.76065530  0.06827501  0.30491361     0.64400
H1254       H  0.67603897  0.04836666  0.30739663     0.12300
N1255       N  0.60991952  0.89091633  0.32227371     0.61000
H1256       H  0.69430710  0.91127498  0.32082676     0.08400
O1257       O  0.85392674  0.00100268  0.25201655    -0.40400
O1258       O  0.82743290  0.92937448  0.26381381    -0.39600
O1259       O  0.75892329  0.96071919  0.37618685    -0.39600
O1260       O  0.79555735  0.03649325  0.37434943    -0.37300
O1261       O  0.58573846  0.86375924  0.30309594    -0.38200
O1262       O  0.60669682  0.87515619  0.34490128    -0.34400
O1263       O  0.76771586  0.08202371  0.28191768    -0.35800
O1264       O  0.78210909  0.09689570  0.32397369    -0.40100
C1265       C  0.23377619  0.02749096  0.33211902    -0.13800
C1266       C  0.24491580  0.00753291  0.35345712     0.16600
C1267       C  0.22434218  0.00153408  0.37664167     0.02900
C1268       C  0.19018234  0.01183598  0.37750610    -0.12300
C1269       C  0.17589608  0.02789380  0.35540366    -0.03300
C1270       C  0.19970081  0.03816759  0.33299981     0.02200
C1271       C  0.27800457  0.99298516  0.35116721     0.09000
N1272       N  0.23531308  0.98158005  0.39874196     0.65400
H1273       H  0.17248664  0.00368404  0.39495502     0.18300
N1274       N  0.19005817  0.05981531  0.31125169     0.75800
H1275       H  0.25117079  0.03412870  0.31462276     0.09800
C1276       C  0.26824728  0.95608882  0.33385551     0.03500
C1277       C  0.30175040  0.94578943  0.33015727    -0.05200
C1278       C  0.34523500  0.97206344  0.34338872    -0.23600
C1279       C  0.35426949  0.00787462  0.36169069     0.12700
C1280       C  0.32046055  0.01778731  0.36545791    -0.12800
N1281       N  0.22477231  0.92959405  0.31943264     0.64400
H1282       H  0.29422312  0.91828795  0.31608278     0.12300
N1283       N  0.39862170  0.03760991  0.37457062     0.61000
H1284       H  0.32806297  0.04647631  0.37865101     0.08400
O1285       O  0.16954652  0.03624290  0.29035248    -0.40400
O1286       O  0.21003887  0.10373585  0.31110929    -0.39600
O1287       O  0.25805287  0.00703867  0.41874885    -0.39600
O1288       O  0.21569457  0.93780590  0.40001780    -0.37300
O1289       O  0.42465731  0.07646759  0.36517175    -0.38200
O1290       O  0.40779250  0.02981687  0.39770192    -0.34400
O1291       O  0.21991061  0.93701861  0.29557936    -0.35800
O1292       O  0.19388435  0.89368164  0.32909376    -0.40100
C1293       C  0.02343579  0.95996038  0.14618020    -0.13800
C1294       C  0.06291261  0.99471182  0.16036394     0.16600
C1295       C  0.10024176  0.02532292  0.14691538     0.02900
C1296       C  0.09661582  0.02260242  0.11957193    -0.12300
C1297       C  0.05621134  0.98941086  0.10500757    -0.03300
C1298       C  0.01978267  0.95693350  0.11876379     0.02200
C1299       C  0.06289558  0.00116986  0.18882133     0.09000
N1300       N  0.14203640  0.05948094  0.16077136     0.65400
H1301       H  0.12555380  0.04731548  0.10966510     0.18300
N1302       N  0.97785351  0.92234352  0.10545072     0.75800
H1303       H  0.99449170  0.93625478  0.15641244     0.09800
C1304       C  0.05681925  0.03655115  0.19845680     0.03500
C1305       C  0.05431181  0.04066109  0.22515859    -0.05200
C1306       C  0.05670024  0.00937899  0.24297074    -0.23600
C1307       C  0.06350464  0.97417706  0.23321977     0.12700
C1308       C  0.06639656  0.97039253  0.20631521    -0.12800
N1309       N  0.05004756  0.06671970  0.18114166     0.64400
H1310       H  0.04868739  0.06779007  0.23172742     0.12300
N1311       N  0.06596279  0.94094968  0.24994496     0.61000
H1312       H  0.07078092  0.94284934  0.19897804     0.08400
O1313       O  0.94816861  0.93277988  0.09869712    -0.40400
O1314       O  0.96587786  0.88000533  0.10782598    -0.39600
O1315       O  0.17114710  0.04862320  0.16830006    -0.39600
O1316       O  0.15370424  0.10195367  0.16033140    -0.37300
O1317       O  0.03438882  0.89885619  0.24747212    -0.38200
O1318       O  0.10378826  0.95070338  0.26143947    -0.34400
O1319       O  0.01032476  0.05468873  0.17186288    -0.35800
O1320       O  0.08118418  0.10879257  0.18029000    -0.40100
loop_ 
_geom_bond_atom_site_label_1 
_geom_bond_atom_site_label_2 
_geom_bond_distance 
_geom_bond_site_symmetry_2 
_ccdc_geom_bond_type 
O1           Ni7   1.921   1_665  S
O1           C22   1.270       .  A
O2          Ni25   1.931   1_565  S
O2           C11   1.273   1_565  A
O3           Ni7   1.888       .  S
O3          Ni25   1.905       .  S
O3          Ni19   1.914   1_455  S
O3           H26   0.967       .  S
C4           O21   1.283       .  A
C4           O13   1.279   1_565  A
C4         C1241   1.480       .  S
O5          Ni24   1.921   1_455  S
O5           C11   1.272       .  A
O6          Ni24   1.917   1_455  S
O6            C8   1.269       .  A
Ni7          O10   1.912       .  S
Ni7          O12   1.914   1_545  S
C8           O18   1.279       .  A
C8         C1213   1.516       .  S
O9          Ni25   1.918       .  S
O9           C15   1.279       .  A
O10          C15   1.278       .  A
C11        C1306   1.497       .  S
O12          C14   1.271       .  A
O13         Ni24   1.917       .  S
C14          O20   1.282       .  A
C14        C1194   1.511       .  S
C15        C1269   1.473       .  S
H16          O17   0.968       .  S
O17         Ni25   1.911   1_665  S
O17         Ni19   1.901   1_565  S
O17         Ni24   1.891   1_565  S
O18         Ni19   1.959   1_455  S
Ni19         O23   1.931       .  S
Ni19         O21   1.919   1_545  S
O20         Ni25   1.965   1_565  S
C22          O23   1.276   1_565  A
C22        C1166   1.499   1_565  S
O27         Ni33   1.917   1_655  S
O27          C48   1.269       .  A
O28         Ni51   1.934       .  S
O28          C37   1.275       .  A
O29         Ni33   1.902       .  S
O29         Ni51   1.903       .  S
O29         Ni45   1.916   1_455  S
O29          H52   0.966       .  S
C30          O47   1.281       .  A
C30          O39   1.278       .  A
C30        C1073   1.477       .  S
O31         Ni50   1.916   1_455  S
O31          C37   1.268       .  A
O32         Ni50   1.919   1_455  S
O32          C34   1.269       .  A
Ni33         O36   1.921       .  S
Ni33         O38   1.917       .  S
C34          O44   1.276       .  A
C34        C1185   1.501       .  S
O35         Ni51   1.915       .  S
O35          C41   1.283       .  A
O36          C41   1.279       .  A
C37        C1129   1.491       .  S
O38          C40   1.269       .  A
O39         Ni50   1.913       .  S
C40          O46   1.279       .  A
C40        C1222   1.503       .  S
C41        C1110   1.474       .  S
H42          O43   0.966   1_655  S
O43         Ni51   1.919       .  S
O43         Ni45   1.901   1_455  S
O43         Ni50   1.902   1_455  S
O44         Ni45   1.944   1_455  S
Ni45         O49   1.926       .  S
Ni45         O47   1.917       .  S
O46         Ni51   1.957       .  S
C48          O49   1.269       .  A
C48        C1045   1.493       .  S
O53         Ni59   1.947       .  S
O53          C74   1.277       .  A
O54         Ni77   1.921       .  S
O54          C63   1.274       .  A
O55         Ni59   1.897       .  S
O55         Ni77   1.903       .  S
O55         Ni71   1.897       .  S
O55          H78   0.968   1_565  S
C56          O73   1.272       .  A
C56          O65   1.277       .  A
C56        C1278   1.472       .  S
O57         Ni76   1.930       .  S
O57          C63   1.275       .  A
O58         Ni76   1.930   1_545  S
O58          C60   1.274       .  A
Ni59         O62   1.921       .  S
Ni59         O64   1.918       .  S
C60          O70   1.278       .  A
C60         C998   1.510       .  S
O61         Ni77   1.916       .  S
O61          C67   1.278       .  A
O62          C67   1.278       .  A
C63        C1026   1.486       .  S
O64          C66   1.273       .  A
O65         Ni76   1.914       .  S
C66          O72   1.284       .  A
C66         C970   1.525       .  S
C67        C1250   1.460       .  S
H68          O69   0.965       .  S
O69         Ni77   1.918       .  S
O69         Ni71   1.907       .  S
O69         Ni76   1.906       .  S
O70         Ni71   1.949   1_545  S
Ni71         O75   1.905   1_565  S
Ni71         O73   1.908       .  S
O72         Ni77   1.974       .  S
C74          O75   1.268   1_565  A
C74         C933   1.488   1_565  S
O79         Ni85   1.930       .  S
O79         C100   1.272       .  A
O80        Ni103   1.927       .  S
O80          C89   1.274       .  A
O81         Ni85   1.904       .  S
O81        Ni103   1.913       .  S
O81         Ni97   1.912       .  S
O81         H104   0.966       .  S
C82          O99   1.278       .  A
C82          O91   1.278       .  A
C82        C1101   1.482       .  S
O83        Ni102   1.941       .  S
O83          C89   1.278       .  A
O84        Ni102   1.926       .  S
O84          C86   1.273       .  A
Ni85         O88   1.912       .  S
Ni85         O90   1.924       .  S
C86          O96   1.282       .  A
C86         C961   1.517       .  S
O87        Ni103   1.916       .  S
O87          C93   1.275       .  A
O88          C93   1.276       .  A
C89         C914   1.504       .  S
O90          C92   1.272       .  A
O91        Ni102   1.923       .  S
C92          O98   1.281       .  A
C92         C989   1.513       .  S
C93        C1082   1.459       .  S
H94          O95   0.966       .  S
O95        Ni103   1.906       .  S
O95         Ni97   1.910       .  S
O95        Ni102   1.900       .  S
O96         Ni97   1.965       .  S
Ni97        O101   1.932       .  S
Ni97         O99   1.909       .  S
O98        Ni103   1.950       .  S
C100        O101   1.275       .  A
C100        C877   1.503       .  S
O105       Ni111   1.922       .  S
O105        C126   1.272   1_545  A
O106       Ni129   1.920       .  S
O106        C115   1.271       .  A
O107       Ni111   1.888       .  S
O107       Ni129   1.899   1_554  S
O107       Ni123   1.914   1_545  S
O107        H130   0.964   1_455  S
C108        O125   1.279       .  A
C108        O117   1.275   1_554  A
C108        C793   1.473       .  S
O109       Ni128   1.920       .  S
O109        C115   1.271   1_565  A
O110       Ni128   1.921   1_655  S
O110        C112   1.274       .  A
Ni111       O114   1.915       .  S
Ni111       O116   1.920       .  S
C112        O122   1.284   1_556  A
C112        C746   1.523       .  S
O113       Ni129   1.936       .  S
O113        C119   1.285   1_556  A
O114        C119   1.279       .  A
C115        C858   1.483       .  S
O116        C118   1.271       .  A
O117       Ni128   1.914       .  S
C118        O124   1.278   1_554  A
C118        C765   1.519       .  S
C119        C830   1.478   1_554  S
H120        O121   0.967       .  S
O121       Ni129   1.926   1_565  S
O121       Ni123   1.912   1_556  S
O121       Ni128   1.898       .  S
O122       Ni123   1.968   1_655  S
Ni123       O127   1.934       .  S
Ni123       O125   1.922       .  S
O124       Ni129   1.957       .  S
C126        O127   1.276       .  A
C126       C1297   1.493       .  S
O131       Ni137   1.901   1_655  S
O131        C152   1.262       .  A
O132       Ni155   1.918       .  S
O132        C141   1.273       .  A
O133       Ni137   1.887       .  S
O133       Ni155   1.902   1_556  S
O133       Ni149   1.915   1_455  S
O133        H156   0.966       .  S
C134        O151   1.276   1_554  A
C134        O143   1.282       .  A
C134        C662   1.489       .  S
O135       Ni154   1.945   1_455  S
O135        C141   1.275       .  A
O136       Ni154   1.906       .  S
O136        C138   1.268       .  A
Ni137       O140   1.896       .  S
Ni137       O142   1.898       .  S
C138        O148   1.274   1_554  A
C138        C821   1.480   1_654  S
O139       Ni155   1.957       .  S
O139        C145   1.288       .  A
O140        C145   1.274   1_556  A
C141       C1138   1.485       .  S
O142        C144   1.267   1_556  A
O143       Ni154   1.946       .  S
C144        O150   1.268       .  A
C144        C802   1.479       .  S
C145        C681   1.475       .  S
H146        O147   0.967       .  S
O147       Ni155   1.925   1_655  S
O147       Ni149   1.923   1_554  S
O147       Ni154   1.903       .  S
O148       Ni149   1.936       .  S
Ni149       O153   1.946       .  S
Ni149       O151   1.919       .  S
O150       Ni155   1.926       .  S
C152        O153   1.272       .  A
C152        C709   1.492       .  S
O157       Ni163   1.942       .  S
O157        C178   1.272   1_545  A
O158       Ni181   1.934       .  S
O158        C167   1.276   1_545  A
O159       Ni163   1.909   1_565  S
O159       Ni181   1.930   1_564  S
O159       Ni175   1.914       .  S
O159        H182   0.957       .  S
C160        O177   1.275   1_556  A
C160        O169   1.279       .  A
C160        C569   1.476   1_556  S
O161       Ni180   1.927       .  S
O161        C167   1.269       .  A
O162       Ni180   1.907       .  S
O162        C164   1.267       .  A
Ni163       O166   1.919       .  S
Ni163       O168   1.899       .  S
C164        O174   1.269   1_556  A
C164        C690   1.487       .  S
O165       Ni181   1.905       .  S
O165        C171   1.271       .  A
O166        C171   1.273   1_554  A
C167        C625   1.490       .  S
O168        C170   1.272   1_554  A
O169       Ni180   1.915       .  S
C170        O176   1.281       .  A
C170        C653   1.501       .  S
C171        C597   1.468       .  S
H172        O173   0.989       .  S
O173       Ni181   1.893   1_565  S
O173       Ni175   1.900   1_556  S
O173       Ni180   1.898       .  S
O174       Ni175   1.926       .  S
Ni175       O179   1.907       .  S
Ni175       O177   1.912       .  S
O176       Ni181   1.958       .  S
C178        O179   1.266       .  A
C178       C1017   1.491       .  S
O183       Ni189   1.916       .  S
O183        C204   1.271       .  A
O184       Ni207   1.931       .  S
O184        C193   1.273       .  A
O185       Ni189   1.894       .  S
O185       Ni207   1.897   1_554  S
O185       Ni201   1.921       .  S
O185        H208   0.969       .  S
C186        O203   1.287   1_556  A
C186        O195   1.278       .  A
C186        C606   1.486       .  S
O187       Ni206   1.920       .  S
O187        C193   1.269       .  A
O188       Ni206   1.921       .  S
O188        C190   1.269       .  A
Ni189       O192   1.919       .  S
Ni189       O194   1.917       .  S
C190        O200   1.278   1_556  A
C190        C774   1.494       .  S
O191       Ni207   1.900       .  S
O191        C197   1.278   1_556  A
O192        C197   1.279       .  A
C193        C541   1.488       .  S
O194        C196   1.272       .  A
O195       Ni206   1.903       .  S
C196        O202   1.280   1_554  A
C196        C737   1.519       .  S
C197        C578   1.450       .  S
H198        O199   0.963       .  S
O199       Ni207   1.913       .  S
O199       Ni201   1.908   1_556  S
O199       Ni206   1.889       .  S
O200       Ni201   1.954       .  S
Ni201       O205   1.938       .  S
Ni201       O203   1.945       .  S
O202       Ni207   1.965       .  S
C204        O205   1.276       .  A
C204        C905   1.501       .  S
O209       Ni215   1.934       .  S
O209        C230   1.274   1_455  A
O210       Ni233   1.928       .  S
O210        C219   1.277       .  A
O211       Ni215   1.895       .  S
O211       Ni233   1.903       .  S
O211       Ni227   1.937   1_455  S
O211        H234   0.964   1_445  S
C212        O229   1.286       .  A
C212        O221   1.282       .  A
C212        C485   1.507       .  S
O213       Ni232   1.920   1_565  S
O213        C219   1.270   1_665  A
O214       Ni232   1.898   1_565  S
O214        C216   1.267       .  A
Ni215       O218   1.937       .  S
Ni215       O220   1.918       .  S
C216        O226   1.288       .  A
C216        C429   1.508       .  S
O217       Ni233   1.967       .  S
O217        C223   1.292       .  A
O218        C223   1.282       .  A
C219        C849   1.487       .  S
O220        C222   1.272       .  A
O221       Ni232   1.930       .  S
C222        O228   1.278       .  A
C222        C466   1.513       .  S
C223        C513   1.506       .  S
H224        O225   0.966       .  S
O225       Ni233   1.944   1_655  S
O225       Ni227   1.901       .  S
O225       Ni232   1.884       .  S
O226       Ni227   1.977   1_565  S
Ni227       O231   1.924       .  S
Ni227       O229   1.954       .  S
O228       Ni233   1.958       .  S
C230        O231   1.277       .  A
C230       C1157   1.490       .  S
O235       Ni241   1.945       .  S
O235        C256   1.279   1_455  A
O236       Ni259   1.917       .  S
O236        C245   1.271   1_455  A
O237       Ni241   1.901   1_655  S
O237       Ni259   1.905   1_655  S
O237       Ni253   1.899       .  S
O237        H260   0.966       .  S
C238        O255   1.276       .  A
C238        O247   1.276       .  A
C238        C317   1.468       .  S
O239       Ni258   1.923       .  S
O239        C245   1.269       .  A
O240       Ni258   1.921       .  S
O240        C242   1.270       .  A
Ni241       O244   1.936       .  S
Ni241       O246   1.930       .  S
C242        O252   1.281       .  A
C242        C382   1.519       .  S
O243       Ni259   1.884       .  S
O243        C249   1.270       .  A
O244        C249   1.281       .  A
C245       C1054   1.489       .  S
O246        C248   1.272       .  A
O247       Ni258   1.904       .  S
C248        O254   1.281       .  A
C248        C401   1.513       .  S
C249        C354   1.466       .  S
H250        O251   0.967       .  S
O251       Ni259   1.897   1_655  S
O251       Ni253   1.905       .  S
O251       Ni258   1.897       .  S
O252       Ni253   1.961       .  S
Ni253       O257   1.916       .  S
Ni253       O255   1.914       .  S
O254       Ni259   1.969       .  S
C256        O257   1.272       .  A
C256        C718   1.498       .  S
O261       Ni267   1.900   1_565  S
O261        C282   1.264       .  A
O262       Ni285   1.926       .  S
O262        C271   1.272       .  A
O263       Ni267   1.889       .  S
O263       Ni285   1.902       .  S
O263       Ni279   1.915   1_545  S
O263        H286   0.967       .  S
C264        O281   1.280       .  A
C264        O273   1.278       .  A
C264        C345   1.458       .  S
O265       Ni284   1.922   1_545  S
O265        C271   1.273       .  A
O266       Ni284   1.926   1_545  S
O266        C268   1.273       .  A
Ni267       O270   1.894       .  S
Ni267       O272   1.921       .  S
C268        O278   1.279       .  A
C268        C522   1.520       .  S
O269       Ni285   1.930       .  S
O269        C275   1.283       .  A
O270        C275   1.277       .  A
C271        C942   1.496       .  S
O272        C274   1.270       .  A
O273       Ni284   1.909       .  S
C274        O280   1.275       .  A
C274        C494   1.498       .  S
C275        C326   1.474       .  S
H276        O277   0.966       .  S
O277       Ni285   1.918   1_565  S
O277       Ni279   1.905       .  S
O277       Ni284   1.893       .  S
O278       Ni279   1.952   1_545  S
Ni279       O283   1.943       .  S
Ni279       O281   1.913       .  S
O280       Ni285   1.941       .  S
C282        O283   1.273       .  A
C282        C634   1.492       .  S
O287       Ni293   1.925       .  S
O287        C308   1.272       .  A
O288       Ni311   1.926       .  S
O288        C297   1.274       .  A
O289       Ni293   1.899       .  S
O289       Ni311   1.911       .  S
O289       Ni305   1.943       .  S
O289        H312   0.963       .  S
C290        O307   1.292       .  A
C290        O299   1.281       .  A
C290        C373   1.515       .  S
O291       Ni310   1.932       .  S
O291        C297   1.271       .  A
O292       Ni310   1.907       .  S
O292        C294   1.270       .  A
Ni293       O296   1.935       .  S
Ni293       O298   1.913       .  S
C294        O304   1.284       .  A
C294        C438   1.518       .  S
O295       Ni311   1.961       .  S
O295        C301   1.288       .  A
O296        C301   1.282       .  A
C297        C550   1.483       .  S
O298        C300   1.269       .  A
O299       Ni310   1.934       .  S
C300        O306   1.280       .  A
C300        C457   1.504       .  S
C301        C410   1.521       .  S
H302        O303   0.966       .  S
O303       Ni311   1.941       .  S
O303       Ni305   1.910       .  S
O303       Ni310   1.896       .  S
O304       Ni305   1.971       .  S
Ni305       O309   1.949       .  S
Ni305       O307   1.967       .  S
O306       Ni311   1.961       .  S
C308        O309   1.280       .  A
C308        C886   1.505       .  S
C313        C314   1.400       .  A
C313        C318   1.391       .  A
C313        H323   1.083       .  S
C314        C319   1.468       .  S
C314        C315   1.407       .  A
C315        C316   1.393       .  A
C315        N320   1.430       .  S
C316        C317   1.405       .  A
C316        H321   1.084       .  S
C317        C318   1.410       .  A
C318        N322   1.427       .  S
C319        C324   1.402       .  A
C319        C328   1.406       .  A
N320        O335   1.262       .  A
N320        O336   1.261       .  A
N322        O333   1.262       .  A
N322        O334   1.262       .  A
C324        C325   1.387       .  A
C324        N329   1.430       .  S
C325        C326   1.410       .  A
C325        H330   1.083       .  S
C326        C327   1.410       .  A
C327        C328   1.397       .  A
C327        N331   1.429       .  S
C328        H332   1.083       .  S
N329        O339   1.262       .  A
N329        O340   1.261       .  A
N331        O337   1.262       .  A
N331        O338   1.262       .  A
C341        C342   1.402       .  A
C341        C346   1.394       .  A
C341        H351   1.084       .  S
C342        C347   1.456       .  S
C342        C343   1.401       .  A
C343        C344   1.389       .  A
C343        N348   1.429       .  S
C344        C345   1.403       .  A
C344        H349   1.084       .  S
C345        C346   1.406       .  A
C346        N350   1.429       .  S
C347        C352   1.402       .  A
C347        C356   1.397       .  A
N348        O363   1.262       .  A
N348        O364   1.261       .  A
N350        O361   1.262       .  A
N350        O362   1.262       .  A
C352        C353   1.394       .  A
C352        N357   1.429       .  S
C353        C354   1.407       .  A
C353        H358   1.084       .  S
C354        C355   1.409       .  A
C355        C356   1.391       .  A
C355        N359   1.429       .  S
C356        H360   1.085       .  S
N357        O367   1.262       .  A
N357        O368   1.262       .  A
N359        O365   1.262       .  A
N359        O366   1.262       .  A
C369        C370   1.405       .  A
C369        C374   1.412       .  A
C369        H379   1.084       .  S
C370        C375   1.512       .  S
C370        C371   1.416       .  A
C371        C372   1.413       .  A
C371        N376   1.428       .  S
C372        C373   1.409       .  A
C372        H377   1.083       .  S
C373        C374   1.423       .  A
C374        N378   1.429       .  S
C375        C380   1.416       .  A
C375        C384   1.403       .  A
N376        O391   1.262       .  A
N376        O392   1.262       .  A
N378        O389   1.262       .  A
N378        O390   1.262       .  A
C380        C381   1.415       .  A
C380        N385   1.428       .  S
C381        C382   1.410       .  A
C381        H386   1.083       .  S
C382        C383   1.426       .  A
C383        C384   1.410       .  A
C383        N387   1.429       .  S
C384        H388   1.084       .  S
N385        O395   1.262       .  A
N385        O396   1.262       .  A
N387        O393   1.262       .  A
N387        O394   1.262       .  A
C397        C398   1.407       .  A
C397        C402   1.412       .  A
C397        H407   1.083       .  S
C398        C403   1.520       .  S
C398        C399   1.418       .  A
C399        C400   1.418       .  A
C399        N404   1.428       .  S
C400        C401   1.410       .  A
C400        H405   1.083       .  S
C401        C402   1.417       .  A
C402        N406   1.427       .  S
C403        C408   1.414       .  A
C403        C412   1.412       .  A
N404        O419   1.262       .  A
N404        O420   1.262       .  A
N406        O417   1.262       .  A
N406        O418   1.261       .  A
C408        C409   1.407       .  A
C408        N413   1.429       .  S
C409        C410   1.413       .  A
C409        H414   1.083       .  S
C410        C411   1.419       .  A
C411        C412   1.419       .  A
C411        N415   1.428       .  S
C412        H416   1.083       .  S
N413        O423   1.262       .  A
N413        O424   1.262       .  A
N415        O421   1.262       .  A
N415        O422   1.262       .  A
C425        C426   1.396       .  A
C425        C430   1.400       .  A
C425        H435   1.084       .  S
C426        C431   1.504       .  S
C426        C427   1.417       .  A
C427        C428   1.419       .  A
C427        N432   1.427       .  S
C428        C429   1.408       .  A
C428        H433   1.083       .  S
C429        C430   1.425       .  A
C430        N434   1.431       .  S
C431        C436   1.411       .  A
C431        C440   1.402       .  A
N432        O447   1.262       .  A
N432        O448   1.262       .  A
N434        O445   1.262       .  A
N434        O446   1.261       .  A
C436        C437   1.406       .  A
C436        N441   1.429       .  S
C437        C438   1.414       .  A
C437        H442   1.083       .  S
C438        C439   1.418       .  A
C439        C440   1.416       .  A
C439        N443   1.423       .  S
C440        H444   1.084       .  S
N441        O451   1.262       .  A
N441        O452   1.262       .  A
N443        O449   1.262       .  A
N443        O450   1.259       .  A
C453        C454   1.407       .  A
C453        C458   1.409       .  A
C453        H463   1.083       .  S
C454        C459   1.513       .  S
C454        C455   1.416       .  A
C455        C456   1.415       .  A
C455        N460   1.428       .  S
C456        C457   1.409       .  A
C456        H461   1.084       .  S
C457        C458   1.415       .  A
C458        N462   1.429       .  S
C459        C464   1.414       .  A
C459        C468   1.409       .  A
N460        O475   1.262       .  A
N460        O476   1.262       .  A
N462        O473   1.262       .  A
N462        O474   1.262       .  A
C464        C465   1.406       .  A
C464        N469   1.429       .  S
C465        C466   1.409       .  A
C465        H470   1.084       .  S
C466        C467   1.421       .  A
C467        C468   1.418       .  A
C467        N471   1.429       .  S
C468        H472   1.083       .  S
N469        O479   1.262       .  A
N469        O480   1.262       .  A
N471        O477   1.262       .  A
N471        O478   1.262       .  A
C481        C482   1.405       .  A
C481        C486   1.413       .  A
C481        H491   1.084   1_545  S
C482        C487   1.501       .  S
C482        C483   1.410       .  A
C483        C484   1.406       .  A
C483        N488   1.429       .  S
C484        C485   1.409       .  A
C484        H489   1.083       .  S
C485        C486   1.422       .  A
C486        N490   1.429   1_545  S
C487        C492   1.410       .  A
C487        C496   1.406   1_545  A
N488        O503   1.262       .  A
N488        O504   1.261       .  A
N490        O501   1.262   1_565  A
N490        O502   1.262       .  A
C492        C493   1.408       .  A
C492        N497   1.427       .  S
C493        C494   1.408       .  A
C493        H498   1.084       .  S
C494        C495   1.415   1_545  A
C495        C496   1.409       .  A
C495        N499   1.429       .  S
C496        H500   1.084       .  S
N497        O507   1.262       .  A
N497        O508   1.262       .  A
N499        O505   1.262       .  A
N499        O506   1.262       .  A
C509        C510   1.409   1_565  A
C509        C514   1.409       .  A
C509        H519   1.084       .  S
C510        C515   1.520       .  S
C510        C511   1.421       .  A
C511        C512   1.419       .  A
C511        N516   1.429       .  S
C512        C513   1.408       .  A
C512        H517   1.083       .  S
C513        C514   1.413   1_545  A
C514        N518   1.428       .  S
C515        C520   1.419       .  A
C515        C524   1.407       .  A
N516        O531   1.262       .  A
N516        O532   1.262       .  A
N518        O529   1.262       .  A
N518        O530   1.262       .  A
C520        C521   1.418       .  A
C520        N525   1.428       .  S
C521        C522   1.413       .  A
C521        H526   1.083       .  S
C522        C523   1.421       .  A
C523        C524   1.409       .  A
C523        N527   1.429       .  S
C524        H528   1.084       .  S
N525        O535   1.262   1_545  A
N525        O536   1.262       .  A
N527        O533   1.262       .  A
N527        O534   1.262   1_545  A
C537        C538   1.403       .  A
C537        C542   1.401       .  A
C537        H547   1.083       .  S
C538        C543   1.496       .  S
C538        C539   1.415       .  A
C539        C540   1.407       .  A
C539        N544   1.430       .  S
C540        C541   1.405       .  A
C540        H545   1.084       .  S
C541        C542   1.413       .  A
C542        N546   1.429       .  S
C543        C548   1.415       .  A
C543        C552   1.405       .  A
N544        O559   1.262       .  A
N544        O560   1.262       .  A
N546        O557   1.262       .  A
N546        O558   1.262       .  A
C548        C549   1.403       .  A
C548        N553   1.429       .  S
C549        C550   1.401       .  A
C549        H554   1.084       .  S
C550        C551   1.413       .  A
C551        C552   1.405       .  A
C551        N555   1.429       .  S
C552        H556   1.083       .  S
N553        O563   1.262       .  A
N553        O564   1.262       .  A
N555        O561   1.262       .  A
N555        O562   1.262       .  A
C565        C566   1.399       .  A
C565        C570   1.396       .  A
C565        H575   1.084       .  S
C566        C571   1.462       .  S
C566        C567   1.404   1_554  A
C567        C568   1.393       .  A
C567        N572   1.429       .  S
C568        C569   1.406   1_556  A
C568        H573   1.084       .  S
C569        C570   1.414       .  A
C570        N574   1.428       .  S
C571        C576   1.404       .  A
C571        C580   1.405       .  A
N572        O587   1.262       .  A
N572        O588   1.262       .  A
N574        O585   1.262       .  A
N574        O586   1.261       .  A
C576        C577   1.393       .  A
C576        N581   1.428       .  S
C577        C578   1.401       .  A
C577        H582   1.085       .  S
C578        C579   1.401       .  A
C579        C580   1.393       .  A
C579        N583   1.430       .  S
C580        H584   1.084       .  S
N581        O591   1.261       .  A
N581        O592   1.262       .  A
N583        O589   1.262   1_554  A
N583        O590   1.262       .  A
C593        C594   1.402       .  A
C593        C598   1.397       .  A
C593        H603   1.084       .  S
C594        C599   1.477       .  S
C594        C595   1.411       .  A
C595        C596   1.398       .  A
C595        N600   1.430       .  S
C596        C597   1.402       .  A
C596        H601   1.085       .  S
C597        C598   1.409       .  A
C598        N602   1.429   1_556  S
C599        C604   1.403       .  A
C599        C608   1.404       .  A
N600        O615   1.262       .  A
N600        O616   1.262       .  A
N602        O613   1.262   1_554  A
N602        O614   1.262       .  A
C604        C605   1.395       .  A
C604        N609   1.430       .  S
C605        C606   1.412       .  A
C605        H610   1.083       .  S
C606        C607   1.412       .  A
C607        C608   1.400       .  A
C607        N611   1.428   1_556  S
C608        H612   1.084   1_556  S
N609        O619   1.262       .  A
N609        O620   1.262       .  A
N611        O617   1.262       .  A
N611        O618   1.262       .  A
C621        C622   1.400       .  A
C621        C626   1.403       .  A
C621        H631   1.084       .  S
C622        C627   1.491       .  S
C622        C623   1.414   1_565  A
C623        C624   1.408       .  A
C623        N628   1.428       .  S
C624        C625   1.404   1_545  A
C624        H629   1.084       .  S
C625        C626   1.417       .  A
C626        N630   1.429       .  S
C627        C632   1.409       .  A
C627        C636   1.406       .  A
N628        O643   1.261       .  A
N628        O644   1.262       .  A
N630        O641   1.262       .  A
N630        O642   1.262       .  A
C632        C633   1.402       .  A
C632        N637   1.429       .  S
C633        C634   1.407       .  A
C633        H638   1.084       .  S
C634        C635   1.415       .  A
C635        C636   1.410       .  A
C635        N639   1.429       .  S
C636        H640   1.084       .  S
N637        O647   1.262       .  A
N637        O648   1.262       .  A
N639        O645   1.262       .  A
N639        O646   1.262   1_565  A
C649        C650   1.405       .  A
C649        C654   1.411       .  A
C649        H659   1.084       .  S
C650        C655   1.487       .  S
C650        C651   1.404   1_556  A
C651        C652   1.397       .  A
C651        N656   1.429       .  S
C652        C653   1.412   1_554  A
C652        H657   1.083       .  S
C653        C654   1.418       .  A
C654        N658   1.428       .  S
C655        C660   1.407   1_556  A
C655        C664   1.404       .  A
N656        O671   1.262       .  A
N656        O672   1.262       .  A
N658        O669   1.262       .  A
N658        O670   1.262       .  A
C660        C661   1.401       .  A
C660        N665   1.428       .  S
C661        C662   1.405       .  A
C661        H666   1.084       .  S
C662        C663   1.415   1_554  A
C663        C664   1.408       .  A
C663        N667   1.429       .  S
C664        H668   1.084       .  S
N665        O675   1.262   1_554  A
N665        O676   1.262       .  A
N667        O673   1.262       .  A
N667        O674   1.262   1_556  A
C677        C678   1.404   1_554  A
C677        C682   1.400       .  A
C677        H687   1.084       .  S
C678        C683   1.486       .  S
C678        C679   1.412       .  A
C679        C680   1.401       .  A
C679        N684   1.430       .  S
C680        C681   1.404   1_556  A
C680        H685   1.084       .  S
C681        C682   1.408       .  A
C682        N686   1.426       .  S
C683        C688   1.413       .  A
C683        C692   1.400   1_556  A
N684        O699   1.262       .  A
N684        O700   1.262       .  A
N686        O697   1.262       .  A
N686        O698   1.261       .  A
C688        C689   1.402       .  A
C688        N693   1.430       .  S
C689        C690   1.406       .  A
C689        H694   1.084       .  S
C690        C691   1.414   1_556  A
C691        C692   1.398       .  A
C691        N695   1.427       .  S
C692        H696   1.084       .  S
N693        O703   1.262       .  A
N693        O704   1.262       .  A
N695        O701   1.262       .  A
N695        O702   1.261       .  A
C705        C706   1.406       .  A
C705        C710   1.408       .  A
C705        H715   1.084       .  S
C706        C711   1.489       .  S
C706        C707   1.407       .  A
C707        C708   1.399       .  A
C707        N712   1.429       .  S
C708        C709   1.409       .  A
C708        H713   1.084       .  S
C709        C710   1.414       .  A
C710        N714   1.428       .  S
C711        C716   1.407   1_655  A
C711        C720   1.402       .  A
N712        O727   1.262       .  A
N712        O728   1.262       .  A
N714        O725   1.262       .  A
N714        O726   1.262       .  A
C716        C717   1.402       .  A
C716        N721   1.429       .  S
C717        C718   1.409   1_455  A
C717        H722   1.083       .  S
C718        C719   1.419       .  A
C719        C720   1.407       .  A
C719        N723   1.429       .  S
C720        H724   1.084       .  S
N721        O731   1.262       .  A
N721        O732   1.262       .  A
N723        O729   1.261       .  A
N723        O730   1.262       .  A
C733        C734   1.410       .  A
C733        C738   1.415       .  A
C733        H743   1.083       .  S
C734        C739   1.521       .  S
C734        C735   1.417   1_556  A
C735        C736   1.413       .  A
C735        N740   1.429       .  S
C736        C737   1.411       .  A
C736        H741   1.083       .  S
C737        C738   1.421   1_554  A
C738        N742   1.429       .  S
C739        C744   1.415       .  A
C739        C748   1.409   1_556  A
N740        O755   1.262       .  A
N740        O756   1.262       .  A
N742        O753   1.262       .  A
N742        O754   1.262       .  A
C744        C745   1.411       .  A
C744        N749   1.428       .  S
C745        C746   1.413       .  A
C745        H750   1.083       .  S
C746        C747   1.417   1_556  A
C747        C748   1.416       .  A
C747        N751   1.423       .  S
C748        H752   1.083       .  S
N749        O759   1.262       .  A
N749        O760   1.262       .  A
N751        O757   1.262       .  A
N751        O758   1.260       .  A
C761        C762   1.409   1_556  A
C761        C766   1.416       .  A
C761        H771   1.083       .  S
C762        C767   1.510       .  S
C762        C763   1.410       .  A
C763        C764   1.408       .  A
C763        N768   1.429       .  S
C764        C765   1.414       .  A
C764        H769   1.083       .  S
C765        C766   1.421   1_554  A
C766        N770   1.428       .  S
C767        C772   1.413   1_554  A
C767        C776   1.413       .  A
N768        O783   1.262       .  A
N768        O784   1.262       .  A
N770        O781   1.262       .  A
N770        O782   1.262       .  A
C772        C773   1.406       .  A
C772        N777   1.428       .  S
C773        C774   1.405       .  A
C773        H778   1.084       .  S
C774        C775   1.411       .  A
C775        C776   1.416   1_556  A
C775        N779   1.428       .  S
C776        H780   1.083       .  S
N777        O787   1.262       .  A
N777        O788   1.262   1_556  A
N779        O785   1.262       .  A
N779        O786   1.261   1_556  A
C789        C790   1.402       .  A
C789        C794   1.396       .  A
C789        H799   1.084   1_554  S
C790        C795   1.477       .  S
C790        C791   1.407       .  A
C791        C792   1.401       .  A
C791        N796   1.428   1_455  S
C792        C793   1.405       .  A
C792        H797   1.084       .  S
C793        C794   1.411       .  A
C794        N798   1.430   1_554  S
C795        C800   1.408   1_454  A
C795        C804   1.403       .  A
N796        O811   1.262       .  A
N796        O812   1.262       .  A
N798        O809   1.262       .  A
N798        O810   1.262       .  A
C800        C801   1.392       .  A
C800        N805   1.430       .  S
C801        C802   1.403   1_656  A
C801        H806   1.084       .  S
C802        C803   1.414       .  A
C803        C804   1.404       .  A
C803        N807   1.429       .  S
C804        H808   1.084       .  S
N805        O815   1.262   1_655  A
N805        O816   1.262       .  A
N807        O813   1.261       .  A
N807        O814   1.261   1_455  A
C817        C818   1.402   1_554  A
C817        C822   1.401       .  A
C817        H827   1.084       .  S
C818        C823   1.477       .  S
C818        C819   1.406   1_455  A
C819        C820   1.400       .  A
C819        N824   1.428       .  S
C820        C821   1.406   1_655  A
C820        H825   1.084       .  S
C821        C822   1.413   1_556  A
C822        N826   1.429       .  S
C823        C828   1.408       .  A
C823        C832   1.399   1_456  A
N824        O839   1.262       .  A
N824        O840   1.262       .  A
N826        O837   1.262       .  A
N826        O838   1.262       .  A
C828        C829   1.404       .  A
C828        N833   1.427       .  S
C829        C830   1.405       .  A
C829        H834   1.084       .  S
C830        C831   1.414   1_456  A
C831        C832   1.397       .  A
C831        N835   1.430       .  S
C832        H836   1.084       .  S
N833        O843   1.262       .  A
N833        O844   1.262       .  A
N835        O841   1.262       .  A
N835        O842   1.262       .  A
C845        C846   1.402   1_665  A
C845        C850   1.397       .  A
C845        H855   1.084       .  S
C846        C851   1.489       .  S
C846        C847   1.413       .  A
C847        C848   1.406       .  A
C847        N852   1.428       .  S
C848        C849   1.405       .  A
C848        H853   1.084       .  S
C849        C850   1.417   1_445  A
C850        N854   1.430       .  S
C851        C856   1.414       .  A
C851        C860   1.403   1_545  A
N852        O867   1.262       .  A
N852        O868   1.262       .  A
N854        O865   1.262       .  A
N854        O866   1.262       .  A
C856        C857   1.407       .  A
C856        N861   1.429       .  S
C857        C858   1.403       .  A
C857        H862   1.084       .  S
C858        C859   1.413   1_545  A
C859        C860   1.399       .  A
C859        N863   1.430       .  S
C860        H864   1.084       .  S
N861        O871   1.262   1_455  A
N861        O872   1.262       .  A
N863        O869   1.262       .  A
N863        O870   1.262       .  A
C873        C874   1.400       .  A
C873        C878   1.403       .  A
C873        H883   1.084       .  S
C874        C879   1.496       .  S
C874        C875   1.412       .  A
C875        C876   1.409       .  A
C875        N880   1.428       .  S
C876        C877   1.410       .  A
C876        H881   1.083       .  S
C877        C878   1.421       .  A
C878        N882   1.428       .  S
C879        C884   1.410       .  A
C879        C888   1.402       .  A
N880        O895   1.262       .  A
N880        O896   1.262       .  A
N882        O893   1.262       .  A
N882        O894   1.262       .  A
C884        C885   1.404       .  A
C884        N889   1.428       .  S
C885        C886   1.410       .  A
C885        H890   1.084       .  S
C886        C887   1.414       .  A
C887        C888   1.409       .  A
C887        N891   1.421       .  S
C888        H892   1.084       .  S
N889        O899   1.262       .  A
N889        O900   1.262       .  A
N891        O897   1.262       .  A
N891        O898   1.262       .  A
C901        C902   1.405       .  A
C901        C906   1.410       .  A
C901        H911   1.084       .  S
C902        C907   1.492       .  S
C902        C903   1.407       .  A
C903        C904   1.402       .  A
C903        N908   1.429       .  S
C904        C905   1.410       .  A
C904        H909   1.083       .  S
C905        C906   1.417       .  A
C906        N910   1.428       .  S
C907        C912   1.409       .  A
C907        C916   1.402       .  A
N908        O923   1.262       .  A
N908        O924   1.262       .  A
N910        O921   1.262       .  A
N910        O922   1.262       .  A
C912        C913   1.403       .  A
C912        N917   1.429       .  S
C913        C914   1.410       .  A
C913        H918   1.083       .  S
C914        C915   1.419       .  A
C915        C916   1.410       .  A
C915        N919   1.428       .  S
C916        H920   1.084       .  S
N917        O927   1.262       .  A
N917        O928   1.262       .  A
N919        O925   1.262       .  A
N919        O926   1.261       .  A
C929        C930   1.404   1_565  A
C929        C934   1.401       .  A
C929        H939   1.084       .  S
C930        C935   1.491       .  S
C930        C931   1.412       .  A
C931        C932   1.406       .  A
C931        N936   1.429       .  S
C932        C933   1.407       .  A
C932        H937   1.084       .  S
C933        C934   1.412   1_545  A
C934        N938   1.428       .  S
C935        C940   1.411       .  A
C935        C944   1.404       .  A
N936        O951   1.262       .  A
N936        O952   1.262       .  A
N938        O949   1.262       .  A
N938        O950   1.262       .  A
C940        C941   1.405       .  A
C940        N945   1.429       .  S
C941        C942   1.409       .  A
C941        H946   1.084       .  S
C942        C943   1.416       .  A
C943        C944   1.404       .  A
C943        N947   1.429       .  S
C944        H948   1.084       .  S
N945        O955   1.262       .  A
N945        O956   1.262       .  A
N947        O953   1.262       .  A
N947        O954   1.262       .  A
C957        C958   1.409       .  A
C957        C962   1.415       .  A
C957        H967   1.084       .  S
C958        C963   1.524       .  S
C958        C959   1.420       .  A
C959        C960   1.416       .  A
C959        N964   1.430       .  S
C960        C961   1.410       .  A
C960        H965   1.084       .  S
C961        C962   1.419       .  A
C962        N966   1.428       .  S
C963        C968   1.416       .  A
C963        C972   1.412       .  A
N964        O979   1.262       .  A
N964        O980   1.262       .  A
N966        O977   1.262       .  A
N966        O978   1.262       .  A
C968        C969   1.413       .  A
C968        N973   1.430       .  S
C969        C970   1.414       .  A
C969        H974   1.083       .  S
C970        C971   1.418       .  A
C971        C972   1.419       .  A
C971        N975   1.427       .  S
C972        H976   1.083       .  S
N973        O983   1.262       .  A
N973        O984   1.262       .  A
N975        O981   1.262       .  A
N975        O982   1.262       .  A
C985        C986   1.407       .  A
C985        C990   1.412       .  A
C985        H995   1.083       .  S
C986        C991   1.515       .  S
C986        C987   1.418       .  A
C987        C988   1.410       .  A
C987        N992   1.428       .  S
C988        C989   1.408       .  A
C988        H993   1.083       .  S
C989        C990   1.422       .  A
C990        N994   1.429       .  S
C991        C996   1.419       .  A
C991       C1000   1.405       .  A
N992       O1007   1.262       .  A
N992       O1008   1.262       .  A
N994       O1005   1.262       .  A
N994       O1006   1.262       .  A
C996        C997   1.415       .  A
C996       N1001   1.429       .  S
C997        C998   1.408       .  A
C997       H1002   1.083       .  S
C998        C999   1.421       .  A
C999       C1000   1.408       .  A
C999       N1003   1.429       .  S
C1000      H1004   1.083       .  S
N1001      O1011   1.262       .  A
N1001      O1012   1.262       .  A
N1003      O1009   1.262       .  A
N1003      O1010   1.262       .  A
C1013      C1014   1.403       .  A
C1013      C1018   1.404   1_565  A
C1013      H1023   1.084   1_565  S
C1014      C1019   1.488       .  S
C1014      C1015   1.409       .  A
C1015      C1016   1.403       .  A
C1015      N1020   1.428       .  S
C1016      C1017   1.406       .  A
C1016      H1021   1.081       .  S
C1017      C1018   1.415   1_565  A
C1018      N1022   1.429       .  S
C1019      C1024   1.411       .  A
C1019      C1028   1.402       .  A
N1020      O1035   1.262       .  A
N1020      O1036   1.262       .  A
N1022      O1033   1.262       .  A
N1022      O1034   1.262       .  A
C1024      C1025   1.406       .  A
C1024      N1029   1.428       .  S
C1025      C1026   1.405       .  A
C1025      H1030   1.084       .  S
C1026      C1027   1.414       .  A
C1027      C1028   1.402       .  A
C1027      N1031   1.429       .  S
C1028      H1032   1.084       .  S
N1029      O1039   1.262       .  A
N1029      O1040   1.262       .  A
N1031      O1037   1.262       .  A
N1031      O1038   1.262       .  A
C1041      C1042   1.404       .  A
C1041      C1046   1.409       .  A
C1041      H1051   1.084       .  S
C1042      C1047   1.485       .  S
C1042      C1043   1.407       .  A
C1043      C1044   1.395       .  A
C1043      N1048   1.430       .  S
C1044      C1045   1.407       .  A
C1044      H1049   1.084       .  S
C1045      C1046   1.418       .  A
C1046      N1050   1.429       .  S
C1047      C1052   1.409   1_655  A
C1047      C1056   1.400       .  A
N1048      O1063   1.262       .  A
N1048      O1064   1.262   1_655  A
N1050      O1061   1.262   1_655  A
N1050      O1062   1.262       .  A
C1052      C1053   1.405       .  A
C1052      N1057   1.428       .  S
C1053      C1054   1.408   1_455  A
C1053      H1058   1.084       .  S
C1054      C1055   1.417       .  A
C1055      C1056   1.397       .  A
C1055      N1059   1.429       .  S
C1056      H1060   1.084       .  S
N1057      O1067   1.262       .  A
N1057      O1068   1.262       .  A
N1059      O1065   1.262       .  A
N1059      O1066   1.262       .  A
C1069      C1070   1.395       .  A
C1069      C1074   1.395       .  A
C1069      H1079   1.084       .  S
C1070      C1075   1.461       .  S
C1070      C1071   1.404       .  A
C1071      C1072   1.393       .  A
C1071      N1076   1.429       .  S
C1072      C1073   1.406       .  A
C1072      H1077   1.084       .  S
C1073      C1074   1.418       .  A
C1074      N1078   1.429       .  S
C1075      C1080   1.405       .  A
C1075      C1084   1.396       .  A
N1076      O1091   1.262       .  A
N1076      O1092   1.262       .  A
N1078      O1089   1.262       .  A
N1078      O1090   1.262       .  A
C1080      C1081   1.395       .  A
C1080      N1085   1.428       .  S
C1081      C1082   1.400       .  A
C1081      H1086   1.084       .  S
C1082      C1083   1.410       .  A
C1083      C1084   1.394       .  A
C1083      N1087   1.428       .  S
C1084      H1088   1.084       .  S
N1085      O1095   1.262       .  A
N1085      O1096   1.262       .  A
N1087      O1093   1.261       .  A
N1087      O1094   1.261       .  A
C1097      C1098   1.399       .  A
C1097      C1102   1.392       .  A
C1097      H1107   1.084       .  S
C1098      C1103   1.476       .  S
C1098      C1099   1.409       .  A
C1099      C1100   1.400       .  A
C1099      N1104   1.429       .  S
C1100      C1101   1.407       .  A
C1100      H1105   1.084       .  S
C1101      C1102   1.416       .  A
C1102      N1106   1.430       .  S
C1103      C1108   1.412       .  A
C1103      C1112   1.398       .  A
N1104      O1119   1.262       .  A
N1104      O1120   1.261       .  A
N1106      O1117   1.262       .  A
N1106      O1118   1.262       .  A
C1108      C1109   1.396       .  A
C1108      N1113   1.429       .  S
C1109      C1110   1.400       .  A
C1109      H1114   1.084       .  S
C1110      C1111   1.417       .  A
C1111      C1112   1.396       .  A
C1111      N1115   1.430       .  S
C1112      H1116   1.083       .  S
N1113      O1123   1.262       .  A
N1113      O1124   1.261       .  A
N1115      O1121   1.262       .  A
N1115      O1122   1.261       .  A
C1125      C1126   1.404       .  A
C1125      C1130   1.403       .  A
C1125      H1135   1.083       .  S
C1126      C1131   1.501       .  S
C1126      C1127   1.416       .  A
C1127      C1128   1.406       .  A
C1127      N1132   1.429       .  S
C1128      C1129   1.404       .  A
C1128      H1133   1.084       .  S
C1129      C1130   1.415       .  A
C1130      N1134   1.429       .  S
C1131      C1136   1.417       .  A
C1131      C1140   1.407       .  A
N1132      O1147   1.262       .  A
N1132      O1148   1.262   1_455  A
N1134      O1145   1.262       .  A
N1134      O1146   1.262       .  A
C1136      C1137   1.404       .  A
C1136      N1141   1.429       .  S
C1137      C1138   1.401       .  A
C1137      H1142   1.083       .  S
C1138      C1139   1.412       .  A
C1139      C1140   1.406       .  A
C1139      N1143   1.428       .  S
C1140      H1144   1.083       .  S
N1141      O1151   1.262       .  A
N1141      O1152   1.262   1_455  A
N1143      O1149   1.262       .  A
N1143      O1150   1.262       .  A
C1153      C1154   1.403       .  A
C1153      C1158   1.404       .  A
C1153      H1163   1.083       .  S
C1154      C1159   1.495       .  S
C1154      C1155   1.415   1_545  A
C1155      C1156   1.405       .  A
C1155      N1160   1.429       .  S
C1156      C1157   1.403   1_565  A
C1156      H1161   1.084       .  S
C1157      C1158   1.417       .  A
C1158      N1162   1.430   1_655  S
C1159      C1164   1.413       .  A
C1159      C1168   1.401   1_545  A
N1160      O1175   1.262       .  A
N1160      O1176   1.262       .  A
N1162      O1173   1.262   1_455  A
N1162      O1174   1.262       .  A
C1164      C1165   1.408       .  A
C1164      N1169   1.428       .  S
C1165      C1166   1.408       .  A
C1165      H1170   1.083       .  S
C1166      C1167   1.421   1_545  A
C1167      C1168   1.401       .  A
C1167      N1171   1.429       .  S
C1168      H1172   1.084       .  S
N1169      O1179   1.262       .  A
N1169      O1180   1.261       .  A
N1171      O1177   1.262   1_655  A
N1171      O1178   1.262       .  A
C1181      C1182   1.404       .  A
C1181      C1186   1.409       .  A
C1181      H1191   1.084       .  S
C1182      C1187   1.503       .  S
C1182      C1183   1.415       .  A
C1183      C1184   1.411       .  A
C1183      N1188   1.429   1_455  S
C1184      C1185   1.408       .  A
C1184      H1189   1.084   1_455  S
C1185      C1186   1.415       .  A
C1186      N1190   1.428       .  S
C1187      C1192   1.409       .  A
C1187      C1196   1.409   1_455  A
N1188      O1203   1.262       .  A
N1188      O1204   1.262   1_655  A
N1190      O1201   1.262       .  A
N1190      O1202   1.262       .  A
C1192      C1193   1.406       .  A
C1192      N1197   1.429       .  S
C1193      C1194   1.413       .  A
C1193      H1198   1.084       .  S
C1194      C1195   1.416   1_455  A
C1195      C1196   1.415       .  A
C1195      N1199   1.427       .  S
C1196      H1200   1.084       .  S
N1197      O1207   1.262       .  A
N1197      O1208   1.262       .  A
N1199      O1205   1.260       .  A
N1199      O1206   1.262       .  A
C1209      C1210   1.408       .  A
C1209      C1214   1.409       .  A
C1209      H1219   1.082       .  S
C1210      C1215   1.523       .  S
C1210      C1211   1.422       .  A
C1211      C1212   1.415       .  A
C1211      N1216   1.429       .  S
C1212      C1213   1.410       .  A
C1212      H1217   1.083       .  S
C1213      C1214   1.421       .  A
C1214      N1218   1.429       .  S
C1215      C1220   1.421       .  A
C1215      C1224   1.412   1_455  A
N1216      O1231   1.262   1_455  A
N1216      O1232   1.262       .  A
N1218      O1229   1.262       .  A
N1218      O1230   1.262       .  A
C1220      C1221   1.409       .  A
C1220      N1225   1.429       .  S
C1221      C1222   1.405       .  A
C1221      H1226   1.084       .  S
C1222      C1223   1.414   1_455  A
C1223      C1224   1.414       .  A
C1223      N1227   1.428       .  S
C1224      H1228   1.081       .  S
N1225      O1235   1.262       .  A
N1225      O1236   1.262       .  A
N1227      O1233   1.262       .  A
N1227      O1234   1.262       .  A
C1237      C1238   1.395       .  A
C1237      C1242   1.396       .  A
C1237      H1247   1.084       .  S
C1238      C1243   1.466       .  S
C1238      C1239   1.406       .  A
C1239      C1240   1.397       .  A
C1239      N1244   1.429       .  S
C1240      C1241   1.405       .  A
C1240      H1245   1.084       .  S
C1241      C1242   1.418       .  A
C1242      N1246   1.429       .  S
C1243      C1248   1.408   1_565  A
C1243      C1252   1.396       .  A
N1244      O1259   1.262       .  A
N1244      O1260   1.262   1_565  A
N1246      O1257   1.262   1_565  A
N1246      O1258   1.262       .  A
C1248      C1249   1.401       .  A
C1248      N1253   1.429       .  S
C1249      C1250   1.401   1_545  A
C1249      H1254   1.084       .  S
C1250      C1251   1.407       .  A
C1251      C1252   1.393       .  A
C1251      N1255   1.428       .  S
C1252      H1256   1.084       .  S
N1253      O1263   1.262       .  A
N1253      O1264   1.262       .  A
N1255      O1261   1.262       .  A
N1255      O1262   1.261       .  A
C1265      C1266   1.402       .  A
C1265      C1270   1.398       .  A
C1265      H1275   1.084       .  S
C1266      C1271   1.466   1_545  S
C1266      C1267   1.402       .  A
C1267      C1268   1.392       .  A
C1267      N1272   1.429   1_545  S
C1268      C1269   1.406       .  A
C1268      H1273   1.084       .  S
C1269      C1270   1.411       .  A
C1270      N1274   1.429       .  S
C1271      C1276   1.405       .  A
C1271      C1280   1.397   1_565  A
N1272      O1287   1.262   1_565  A
N1272      O1288   1.262       .  A
N1274      O1285   1.261       .  A
N1274      O1286   1.262       .  A
C1276      C1277   1.394       .  A
C1276      N1281   1.429       .  S
C1277      C1278   1.403       .  A
C1277      H1282   1.084       .  S
C1278      C1279   1.418   1_565  A
C1279      C1280   1.396       .  A
C1279      N1283   1.430       .  S
C1280      H1284   1.084       .  S
N1281      O1291   1.262       .  A
N1281      O1292   1.262       .  A
N1283      O1289   1.262       .  A
N1283      O1290   1.262       .  A
C1293      C1294   1.400       .  A
C1293      C1298   1.405       .  A
C1293      H1303   1.084   1_455  S
C1294      C1299   1.482   1_565  S
C1294      C1295   1.406   1_565  A
C1295      C1296   1.401       .  A
C1295      N1300   1.429       .  S
C1296      C1297   1.409   1_545  A
C1296      H1301   1.084       .  S
C1297      C1298   1.414       .  A
C1298      N1302   1.424   1_455  S
C1299      C1304   1.406       .  A
C1299      C1308   1.402   1_545  A
N1300      O1315   1.262       .  A
N1300      O1316   1.261       .  A
N1302      O1313   1.262       .  A
N1302      O1314   1.262       .  A
C1304      C1305   1.397       .  A
C1304      N1309   1.430       .  S
C1305      C1306   1.410       .  A
C1305      H1310   1.083       .  S
C1306      C1307   1.418   1_545  A
C1307      C1308   1.408       .  A
C1307      N1311   1.427       .  S
C1308      H1312   1.084       .  S
N1309      O1319   1.262       .  A
N1309      O1320   1.261       .  A
N1311      O1317   1.261       .  A
N1311      O1318   1.261       .  A
