geometry optimzed in LAMMPS
_audit_creation_date              2020-11-30 
_audit_creation_method            'lammps2cif' 
_symmetry_space_group_name_H-M    'P1' 
_symmetry_Int_Tables_number       1 
_symmetry_cell_setting            triclinic 
loop_ 
_symmetry_equiv_pos_as_xyz 
  x,y,z 
_cell_length_a                    63.17147173 
_cell_length_b                    67.61940147657167 
_cell_length_c                    35.202598837061174 
_cell_angle_alpha                 90.96412349822107 
_cell_angle_beta                  88.61856260166788 
_cell_angle_gamma                 90.34368018601842 
loop_ 
_atom_site_label 
_atom_site_type_symbol 
_atom_site_fract_x 
_atom_site_fract_y 
_atom_site_fract_z 
_atom_site_charge 
O1          O  0.63868626  0.92801008  0.16494505    -0.81300
O2          O  0.63530607  0.83792992  0.12444814    -0.65900
O3          O  0.61925583  0.89202739  0.14180924    -1.12500
C4          C  0.61615803  0.87354171  0.27111259     1.05600
O5          O  0.60947995  0.82779309  0.16296092    -0.79200
O6          O  0.58412485  0.85358901  0.20037171    -0.66700
Ni7        Ni  0.63437176  0.91322859  0.11826451     1.34900
C8          C  0.57695536  0.87101824  0.19798480     0.84400
O9          O  0.62781438  0.86795313  0.07745828    -0.79700
O10         O  0.63123573  0.90080925  0.06940058    -0.90000
C11         C  0.62432826  0.82406144  0.13902198     0.83900
O12         O  0.66225975  0.90282762  0.12099001    -0.68200
O13         O  0.61243173  0.85618529  0.25813382    -0.87500
C14         C  0.66968745  0.88558649  0.12492518     0.84800
C15         C  0.62953039  0.88313657  0.05648855     1.06300
H16         H  0.64202874  0.86241530  0.19433057     0.38100
O17         O  0.62767246  0.86385641  0.18601741    -1.10100
O18         O  0.58910681  0.88609819  0.19720785    -0.66800
Ni19       Ni  0.61947080  0.89067062  0.19595425     1.26300
O20         O  0.65802853  0.87047333  0.13084830    -0.67000
O21         O  0.62022370  0.88833341  0.25010441    -0.79300
C22         C  0.62498953  0.93158492  0.19117467     0.84200
O23         O  0.61268267  0.91804411  0.20314827    -0.66500
Ni24       Ni  0.61150396  0.84319337  0.20922087     1.27400
Ni25       Ni  0.62787598  0.86533055  0.13166423     1.26100
H26         H  0.60476443  0.89310825  0.13390976     0.38700
O27         O  0.64461279  0.92869002  0.66186786    -0.81300
O28         O  0.63474570  0.83806734  0.62211061    -0.65900
O29         O  0.62380769  0.89292648  0.64329282    -1.12500
C30         C  0.63136220  0.87250499  0.77164860     1.05600
O31         O  0.61075633  0.83097601  0.66591298    -0.79200
O32         O  0.59265703  0.85542248  0.71779466    -0.66700
Ni33       Ni  0.63817842  0.91344120  0.61648374     1.34900
C34         C  0.58587414  0.87277431  0.71286924     0.84400
O35         O  0.62492069  0.86870831  0.57775007    -0.79700
O36         O  0.63232946  0.90080183  0.56846089    -0.90000
C37         C  0.62385263  0.82531667  0.64023243     0.83900
O38         O  0.66571084  0.90201297  0.61629159    -0.68200
O39         O  0.62829894  0.85492045  0.75921612    -0.87500
C40         C  0.67213148  0.88424554  0.61653512     0.84800
C41         C  0.62712253  0.88360532  0.55621724     1.06300
H42         H  0.64922724  0.86235819  0.68856473     0.38100
O43         O  0.63428939  0.86415243  0.68451371    -1.10100
O44         O  0.59778640  0.88717142  0.70359829    -0.66800
Ni45       Ni  0.62781712  0.89096721  0.69687861     1.26300
O46         O  0.65990715  0.86945732  0.62201141    -0.67000
O47         O  0.63173533  0.88774967  0.75056216    -0.79300
C48         C  0.63232202  0.93231551  0.69035930     0.84200
O49         O  0.62214722  0.91839005  0.70638226    -0.66500
Ni50       Ni  0.61993661  0.84366937  0.71169846     1.27400
Ni51       Ni  0.62980328  0.86585485  0.63096154     1.26100
H52         H  0.60897767  0.89492104  0.63881899     0.38700
O53         O  0.86202258  0.92937336  0.04963273    -0.81300
O54         O  0.86205121  0.83876248  0.08434065    -0.65900
O55         O  0.87910153  0.89269904  0.07007040    -1.12500
C56         C  0.87948616  0.87303972  0.93936803     1.05600
O57         O  0.88798977  0.82907972  0.04597938    -0.79200
O58         O  0.91253829  0.85330239  0.00463066    -0.66700
Ni59       Ni  0.86410221  0.91381231  0.09487960     1.34900
C60         C  0.92024870  0.87041122  0.01046630     0.84400
O61         O  0.87133956  0.86836784  0.13303635    -0.79700
O62         O  0.86513206  0.90079731  0.14294840    -0.90000
C63         C  0.87326344  0.82497659  0.06975958     0.83900
O64         O  0.83614401  0.90401894  0.08723442    -0.68200
O65         O  0.88173621  0.85554901  0.95158088    -0.87500
C66         C  0.82844727  0.88666394  0.08468442     0.84800
C67         C  0.86810665  0.88334236  0.15485847     1.06300
H68         H  0.85502674  0.86362356  0.01662059     0.38100
O69         O  0.86953522  0.86463843  0.02446024    -1.10100
O70         O  0.90886642  0.88575464  0.01523574    -0.66800
Ni71       Ni  0.87883599  0.89117138  0.01564899     1.26300
O72         O  0.83994419  0.87129490  0.08136330    -0.67000
O73         O  0.87816032  0.88839002  0.96101925    -0.79300
C74         C  0.87611791  0.93260716  0.02400627     0.84200
O75         O  0.88689770  0.91842532  0.00965237    -0.66500
Ni76       Ni  0.88440617  0.84334874  0.99984603     1.27400
Ni77       Ni  0.87006462  0.86601924  0.07873678     1.26100
H78         H  0.89357272  0.89381220  0.07815249     0.38700
O79         O  0.86052137  0.92901863  0.55633783    -0.81300
O80         O  0.86442556  0.83670496  0.58212603    -0.65900
O81         O  0.87990869  0.89162287  0.56896033    -1.12500
C82         C  0.87344493  0.87483419  0.43855536     1.05600
O83         O  0.88792284  0.82758182  0.53806665    -0.79200
O84         O  0.91081561  0.85466263  0.49971158    -0.66700
Ni85       Ni  0.86663654  0.91221904  0.59873119     1.34900
C86         C  0.91774209  0.87226781  0.50279825     0.84400
O87         O  0.87556245  0.86585306  0.63144161    -0.79700
O88         O  0.87210440  0.89837183  0.64446955    -0.90000
C89         C  0.87416428  0.82313454  0.56339797     0.83900
O90         O  0.83843891  0.90190931  0.59748858    -0.68200
O91         O  0.87876928  0.85756397  0.44847621    -0.87500
C92         C  0.83076094  0.88471172  0.59202868     0.84800
C93         C  0.87541064  0.88065805  0.65444728     1.06300
H94         H  0.85362482  0.86241968  0.51800634     0.38100
O95         O  0.86846395  0.86402504  0.52344692    -1.10100
O96         O  0.90574942  0.88722311  0.50695626    -0.66800
Ni97       Ni  0.87577545  0.89128244  0.51521147     1.26300
O98         O  0.84198224  0.86958321  0.58395558    -0.67000
O99         O  0.87130017  0.88953490  0.46153392    -0.79300
C100        C  0.87205916  0.93294663  0.52724216     0.84200
O101        O  0.88209965  0.91915060  0.50971053    -0.66500
Ni102      Ni  0.88305874  0.84383780  0.49476785     1.27400
Ni103      Ni  0.87183055  0.86444177  0.57732341     1.26100
H104        H  0.89488420  0.89270140  0.57365536     0.38700
O105        O  0.86139448  0.07687842  0.40049547    -0.81300
O106        O  0.86329395  0.17073695  0.37332100    -0.65900
O107        O  0.87764116  0.11595378  0.38717956    -1.12500
C108        C  0.87528988  0.13107001  0.51778949     1.05600
O109        O  0.88112984  0.18285511  0.42245824    -0.79200
O110        O  0.90839391  0.15419698  0.44381258    -0.66700
Ni111      Ni  0.86307042  0.09562283  0.35924028     1.34900
C112        C  0.91538018  0.13662667  0.44487404     0.84400
O113        O  0.87460062  0.14165575  0.32519241    -0.79700
O114        O  0.86339511  0.11081067  0.31326909    -0.90000
C115        C  0.87090388  0.18523270  0.39224676     0.83900
O116        O  0.83556441  0.10495706  0.37284891    -0.68200
O117        O  0.88293517  0.14744510  0.50642648    -0.87500
C118        C  0.82811304  0.12236369  0.37226699     0.84800
C119        C  0.86892997  0.12797988  0.30228803     1.06300
H120        H  0.85096988  0.14556567  0.43980324     0.38100
O121        O  0.86578318  0.14384971  0.43338721    -1.10100
O122        O  0.90313399  0.12162556  0.44735657    -0.66800
Ni123      Ni  0.87311665  0.11674530  0.44122176     1.26300
O124        O  0.83982146  0.13786618  0.37269919    -0.67000
O125        O  0.86793808  0.11831170  0.49480407    -0.79300
C126        C  0.87065843  0.07488800  0.43192779     0.84200
O127        O  0.87985492  0.08938230  0.44799456    -0.66500
Ni128      Ni  0.88144367  0.16336049  0.46170047     1.27400
Ni129      Ni  0.86996119  0.14312456  0.37916154     1.26100
H130        H  0.89255770  0.11455531  0.38117620     0.38700
O131        O  0.85848931  0.07806009  0.91512145    -0.81300
O132        O  0.86140676  0.16516836  0.86768248    -0.65900
O133        O  0.87836395  0.11263569  0.88910131    -1.12500
C134        C  0.87740656  0.13768484  0.01623206     1.05600
O135        O  0.88745198  0.17741005  0.90181502    -0.79200
O136        O  0.91201918  0.15396950  0.94340793    -0.66700
Ni137      Ni  0.86417300  0.09044123  0.86694085     1.34900
C138        C  0.91908623  0.13643702  0.94270734     0.84400
O139        O  0.87029842  0.13386595  0.82311427    -0.79700
O140        O  0.86914441  0.10068941  0.81688935    -0.90000
C141        C  0.87321388  0.17948829  0.87724679     0.83900
O142        O  0.83596539  0.10059026  0.86787508    -0.68200
O143        O  0.88184632  0.15424765  0.00096344    -0.87500
C144        C  0.82834165  0.11779226  0.87284140     0.84800
C145        C  0.87054649  0.11798152  0.80303479     1.06300
H146        H  0.85433593  0.14431269  0.93953843     0.38100
O147        O  0.86882578  0.14256996  0.93078413    -1.10100
O148        O  0.90711526  0.12122854  0.94314133    -0.66800
Ni149      Ni  0.87693817  0.11634823  0.94319229     1.26300
O150        O  0.83964881  0.13302715  0.87895455    -0.67000
O151        O  0.87502761  0.12153604  0.99719341    -0.79300
C152        C  0.87202931  0.07504464  0.94052430     0.84200
O153        O  0.88364665  0.08913488  0.95263580    -0.66500
Ni154      Ni  0.88430477  0.16459121  0.95042463     1.27400
Ni155      Ni  0.86943469  0.13860975  0.87701811     1.26100
H156        H  0.89304176  0.11153218  0.88103077     0.38700
O157        O  0.63632995  0.07449820  0.31894385    -0.81300
O158        O  0.63281657  0.16519519  0.36387740    -0.65900
O159        O  0.61848898  0.11067044  0.34467704    -1.12500
C160        C  0.61814956  0.13284618  0.21646338     1.05600
O161        O  0.60561127  0.17325969  0.32968072    -0.79200
O162        O  0.58396611  0.14977714  0.28274767    -0.66700
Ni163      Ni  0.63426310  0.08969678  0.36581311     1.34900
C164        C  0.57667235  0.13250426  0.28762180     0.84400
O165        O  0.62549733  0.13431601  0.40968603    -0.79700
O166        O  0.63346042  0.10214317  0.41537918    -0.90000
C167        C  0.61985859  0.17810029  0.35288272     0.83900
O168        O  0.66170253  0.10037136  0.35561009    -0.68200
O169        O  0.61653102  0.15030178  0.23063120    -0.87500
C170        C  0.66882139  0.11794984  0.35409103     0.84800
C171        C  0.62970421  0.11929447  0.42945447     1.06300
H172        H  0.64129091  0.14132001  0.29293149     0.38100
O173        O  0.62681699  0.13976508  0.30182079    -1.10100
O174        O  0.58839696  0.11761994  0.29292009    -0.66800
Ni175      Ni  0.61857593  0.11323471  0.29043046     1.26300
O176        O  0.65686956  0.13312259  0.35458804    -0.67000
O177        O  0.61885406  0.11716478  0.23626936    -0.79300
C178        C  0.62287302  0.07182184  0.29299652     0.84200
O179        O  0.61168362  0.08594325  0.28137617    -0.66500
Ni180      Ni  0.61160099  0.16100394  0.28089990     1.27400
Ni181      Ni  0.62645577  0.13752881  0.35577024     1.26100
H182        H  0.60404924  0.10894678  0.35380727     0.38700
O183        O  0.64255319  0.07775382  0.82262355    -0.81300
O184        O  0.63489684  0.16799100  0.86154963    -0.65900
O185        O  0.62136220  0.11316660  0.84335785    -1.12500
C186        C  0.62739661  0.13192485  0.71389927     1.05600
O187        O  0.61059637  0.17590776  0.82089434    -0.79200
O188        O  0.58944270  0.15038167  0.77665987    -0.66700
Ni189      Ni  0.63537387  0.09252174  0.86863038     1.34900
C190        C  0.58275834  0.13282300  0.78084787     0.84400
O191        O  0.62545101  0.13771124  0.90851165    -0.79700
O192        O  0.62921852  0.10505400  0.91691552    -0.90000
C193        C  0.62450770  0.18107359  0.84452033     0.83900
O194        O  0.66300594  0.10380527  0.86764492    -0.68200
O195        O  0.62286117  0.14930639  0.72602207    -0.87500
C196        C  0.67019091  0.12125944  0.86432611     0.84800
C197        C  0.62622624  0.12261591  0.92981345     1.06300
H198        H  0.64660785  0.14328494  0.79339752     0.38100
O199        O  0.63178648  0.14147608  0.79993412    -1.10100
O200        O  0.59483000  0.11816749  0.78569100    -0.66800
Ni201      Ni  0.62489762  0.11443158  0.78929179     1.26300
O202        O  0.65864526  0.13611237  0.85785353    -0.67000
O203        O  0.62869053  0.11695097  0.73533166    -0.79300
C204        C  0.63007648  0.07334746  0.79595122     0.84200
O205        O  0.61905475  0.08674101  0.78122033    -0.66500
Ni206      Ni  0.61709005  0.16174599  0.77444469     1.27400
Ni207      Ni  0.62861531  0.14022576  0.85422828     1.26100
H208        H  0.60649177  0.11159814  0.84969678     0.38700
O209        O  0.10935366  0.82807233  0.05383260    -0.81300
O210        O  0.11536040  0.91685593  0.01048542    -0.65900
O211        O  0.12981113  0.86278745  0.02923095    -1.12500
C212        C  0.12939918  0.88454012  0.15835903     1.05600
O213        O  0.13994921  0.92795257  0.04914595    -0.79200
O214        O  0.16364457  0.90288760  0.09040891    -0.66700
Ni215      Ni  0.11429675  0.84146768  0.00656315     1.34900
C216        C  0.17058294  0.88527574  0.08892760     0.84400
O217        O  0.12349004  0.88544471  0.96452658    -0.79700
O218        O  0.11833098  0.85263641  0.95710294    -0.90000
C219        C  0.12650096  0.93104485  0.02354327     0.83900
O220        O  0.08661244  0.85238790  0.01222368    -0.68200
O221        O  0.13248066  0.90178478  0.14502932    -0.87500
C222        C  0.07960604  0.86982081  0.01696348     0.84800
C223        C  0.12198914  0.86980003  0.94387714     1.06300
H224        H  0.10614424  0.89361805  0.08121896     0.38100
O225        O  0.12073449  0.89207242  0.07293853    -1.10100
O226        O  0.15866161  0.87016887  0.08482263    -0.66800
Ni227      Ni  0.12852837  0.86532206  0.08342064     1.26300
O228        O  0.09165096  0.88492097  0.01939237    -0.67000
O229        O  0.12675147  0.86905616  0.13762539    -0.79300
C230        C  0.12354047  0.82399036  0.07730692     0.84200
O231        O  0.13530345  0.83768764  0.09058740    -0.66500
Ni232      Ni  0.13577116  0.91353899  0.09585982     1.27400
Ni233      Ni  0.12193080  0.88942633  0.01866086     1.26100
H234        H  0.14442243  0.86116371  0.02106764     0.38700
O235        O  0.10326359  0.83146563  0.54860616    -0.81300
O236        O  0.11290484  0.91966770  0.51355644    -0.65900
O237        O  0.12582088  0.86521008  0.52838415    -1.12500
C238        C  0.12544581  0.88242115  0.65882866     1.05600
O239        O  0.13492517  0.93105486  0.55723943    -0.79200
O240        O  0.15974339  0.90280066  0.58702027    -0.66700
Ni241      Ni  0.11077352  0.84476753  0.50248719     1.34900
C242        C  0.16605018  0.88499402  0.58539645     0.84400
O243        O  0.12086647  0.88932760  0.46531265    -0.79700
O244        O  0.11754366  0.85645669  0.45460236    -0.90000
C245        C  0.12305081  0.93378818  0.52911596     0.83900
O246        O  0.08337807  0.85655865  0.50343812    -0.68200
O247        O  0.13135282  0.89934513  0.64697692    -0.87500
C248        C  0.07650223  0.87385439  0.51068493     0.84800
C249        C  0.12023288  0.87411683  0.44323589     1.06300
H250        H  0.10210193  0.89558547  0.58224827     0.38100
O251        O  0.11669645  0.89358131  0.57440227    -1.10100
O252        O  0.15349358  0.87016521  0.58578205    -0.66800
Ni253      Ni  0.12327775  0.86621480  0.58256823     1.26300
O254        O  0.08858902  0.88835136  0.51853953    -0.67000
O255        O  0.12043559  0.86821682  0.63660183    -0.79300
C256        C  0.11717043  0.82547433  0.57102208     0.84200
O257        O  0.12887353  0.83820702  0.58744437    -0.66500
Ni258      Ni  0.13267745  0.91358081  0.60010935     1.27400
Ni259      Ni  0.11880323  0.89213771  0.51986684     1.26100
H260        H  0.14054884  0.86357056  0.52115707     0.38700
O261        O  0.38377383  0.82680773  0.17917969    -0.81300
O262        O  0.38077221  0.91761173  0.22581370    -0.65900
O263        O  0.36640767  0.86341593  0.20424281    -1.12500
C264        C  0.36929329  0.88600815  0.07646065     1.05600
O265        O  0.35552073  0.92744928  0.18857362    -0.79200
O266        O  0.33345690  0.90351531  0.14132709    -0.66700
Ni267      Ni  0.38275731  0.84268143  0.22521348     1.34900
C268        C  0.32622696  0.88601877  0.14396082     0.84400
O269        O  0.37227214  0.88674236  0.27027980    -0.79700
O270        O  0.38306018  0.85545112  0.27459912    -0.90000
C271        C  0.36916412  0.93127566  0.21364385     0.83900
O272        O  0.40968039  0.85341111  0.21098968    -0.68200
O273        O  0.36666974  0.90331543  0.09076070    -0.87500
C274        C  0.41655181  0.87107011  0.21133677     0.84800
C275        C  0.37803622  0.87208386  0.28968931     1.06300
H276        H  0.39066747  0.89431885  0.15482042     0.38100
O277        O  0.37597840  0.89282788  0.16256199    -1.10100
O278        O  0.33790225  0.87113997  0.14937253    -0.66800
Ni279      Ni  0.36789925  0.86633395  0.15007636     1.26300
O280        O  0.40460884  0.88601397  0.21685417    -0.67000
O281        O  0.36995846  0.87032793  0.09614724    -0.79300
C282        C  0.37091400  0.82472557  0.15218336     0.84200
O283        O  0.36053107  0.83920717  0.13995021    -0.66500
Ni284      Ni  0.36147547  0.91432633  0.14056656     1.27400
Ni285      Ni  0.37424618  0.89023587  0.21648245     1.26100
H286        H  0.35185176  0.86140775  0.21238484     0.38700
O287        O  0.42534977  0.86526783  0.68481513    -0.81300
O288        O  0.33123234  0.87197489  0.64576246    -0.65900
O289        O  0.38907105  0.88481885  0.66162973    -1.12500
C290        C  0.36602763  0.88365178  0.79147752     1.05600
O291        O  0.32184834  0.89685406  0.68366893    -0.79200
O292        O  0.34773031  0.91741294  0.73093599    -0.66700
Ni293      Ni  0.41099319  0.86934791  0.63791221     1.34900
C294        C  0.36639577  0.92427087  0.72665487     0.84400
O295        O  0.36400676  0.87850681  0.59771674    -0.79700
O296        O  0.39881413  0.87272856  0.58882785    -0.90000
C297        C  0.31714306  0.88357157  0.65923460     0.83900
O298        O  0.39868869  0.84352083  0.64289413    -0.68200
O299        O  0.34740870  0.88646535  0.77931819    -0.87500
C300        C  0.37987244  0.83721828  0.64799791     0.84800
C301        C  0.38051317  0.87662115  0.57632241     1.06300
H302        H  0.35627020  0.86367800  0.71411011     0.38100
O303        O  0.35801646  0.87722544  0.70627547    -1.10100
O304        O  0.38216297  0.91309347  0.71857488    -0.66800
Ni305      Ni  0.38646492  0.88454025  0.71592429     1.26300
O306        O  0.36429737  0.84904257  0.65138895    -0.67000
O307        O  0.38268270  0.88324401  0.77010871    -0.79300
C308        C  0.42971468  0.87830480  0.70993174     0.84200
O309        O  0.41576963  0.89031732  0.72247947    -0.66500
Ni310      Ni  0.33557177  0.89144465  0.73069264     1.27400
Ni311      Ni  0.36047333  0.87758986  0.65209834     1.26100
H312        H  0.39117339  0.89829576  0.65359991     0.38700
O313        O  0.38927973  0.17710472  0.32815876    -0.81300
O314        O  0.38128461  0.08773968  0.28506508    -0.65900
O315        O  0.36837045  0.14228832  0.30455660    -1.12500
C316        C  0.36755469  0.12174586  0.43330206     1.05600
O317        O  0.35488014  0.07906300  0.32333760    -0.79200
O318        O  0.33233719  0.10456260  0.36697880    -0.66700
Ni319      Ni  0.38464789  0.16285300  0.28116957     1.34900
C320        C  0.32627821  0.12231909  0.36423774     0.84400
O321        O  0.37452565  0.11846279  0.23891966    -0.79700
O322        O  0.38123185  0.15090219  0.23164897    -0.90000
C323        C  0.36936497  0.07443997  0.29922954     0.83900
O324        O  0.41187082  0.15139500  0.28604522    -0.68200
O325        O  0.36316613  0.10454438  0.42018498    -0.87500
C326        C  0.41812574  0.13377625  0.28977533     0.84800
C327        C  0.37720677  0.13366790  0.21820757     1.06300
H328        H  0.39038330  0.11116008  0.35479535     0.38100
O329        O  0.37596293  0.11323476  0.34732970    -1.10100
O330        O  0.33901152  0.13681148  0.36075836    -0.66800
Ni331      Ni  0.36929723  0.14016367  0.35870962     1.26300
O332        O  0.40564348  0.11901573  0.29212860    -0.67000
O333        O  0.37068942  0.13689057  0.41267593    -0.79300
C334        C  0.37592289  0.18097907  0.35473711     0.84200
O335        O  0.36365239  0.16763871  0.36757498    -0.66500
Ni336      Ni  0.35950648  0.09280309  0.37068878     1.27400
Ni337      Ni  0.37537258  0.11531191  0.29315986     1.26100
H338        H  0.35388360  0.14422913  0.29728546     0.38700
O339        O  0.39421401  0.17324089  0.82630629    -0.81300
O340        O  0.38698746  0.08409719  0.78586531    -0.65900
O341        O  0.37370944  0.13887193  0.80226390    -1.12500
C342        C  0.37024834  0.12038295  0.93216967     1.05600
O343        O  0.36045990  0.07471857  0.82377652    -0.79200
O344        O  0.33690416  0.10133374  0.86495268    -0.66700
Ni345      Ni  0.39042159  0.15911139  0.77923102     1.34900
C346        C  0.33026795  0.11872513  0.85936301     0.84400
O347        O  0.38098353  0.11430792  0.73845217    -0.79700
O348        O  0.38775000  0.14661947  0.73034959    -0.90000
C349        C  0.37431984  0.07080581  0.79786798     0.83900
O350        O  0.41750993  0.14778601  0.78520939    -0.68200
O351        O  0.36746729  0.10277440  0.91942925    -0.87500
C352        C  0.42396692  0.13033514  0.79002650     0.84800
C353        C  0.38397552  0.12925933  0.71724685     1.06300
H354        H  0.39482279  0.10913694  0.85563979     0.38100
O355        O  0.38051658  0.11066997  0.84712565    -1.10100
O356        O  0.34255766  0.13361755  0.85572984    -0.66800
Ni357      Ni  0.37283377  0.13783989  0.85658405     1.26300
O358        O  0.41150327  0.11555611  0.79322206    -0.67000
O359        O  0.37228486  0.13551763  0.91105066    -0.79300
C360        C  0.37905920  0.17878580  0.84814127     0.84200
O361        O  0.36662960  0.16583673  0.86249837    -0.66500
Ni362      Ni  0.36433356  0.09005222  0.87044181     1.27400
Ni363      Ni  0.38106907  0.11183078  0.79281629     1.26100
H364        H  0.35946484  0.14061972  0.79346416     0.38700
O365        O  0.10410755  0.17794814  0.41759015    -0.81300
O366        O  0.11097741  0.08941970  0.45404324    -0.65900
O367        O  0.12493513  0.14405325  0.43924007    -1.12500
C368        C  0.12768330  0.12442988  0.30910114     1.05600
O369        O  0.13744116  0.07997419  0.41606962    -0.79200
O370        O  0.16150303  0.10682828  0.37895741    -0.66700
Ni371      Ni  0.10880627  0.16442578  0.46407020     1.34900
C372        C  0.16774459  0.12464302  0.38236265     0.84400
O373        O  0.11769547  0.11997788  0.50251738    -0.79700
O374        O  0.11278892  0.15260063  0.51242690    -0.90000
C375        C  0.12301803  0.07589262  0.44061404     0.83900
O376        O  0.08141172  0.15278494  0.45989611    -0.68200
O377        O  0.13241931  0.10744768  0.32169013    -0.87500
C378        C  0.07471147  0.13543886  0.45265377     0.84800
C379        C  0.11610151  0.13520088  0.52439585     1.06300
H380        H  0.10351373  0.11309672  0.38517477     0.38100
O381        O  0.11771827  0.11530135  0.39374934    -1.10100
O382        O  0.15510278  0.13920291  0.38372497    -0.66800
Ni383      Ni  0.12476860  0.14254310  0.38479854     1.26300
O384        O  0.08701445  0.12076088  0.44753940    -0.67000
O385        O  0.12404249  0.13955130  0.33048645    -0.79300
C386        C  0.11912148  0.18352873  0.39569793     0.84200
O387        O  0.13075141  0.17056197  0.37906233    -0.66500
Ni388      Ni  0.13453580  0.09500370  0.37020118     1.27400
Ni389      Ni  0.11735430  0.11705396  0.44802106     1.26100
H390        H  0.13934148  0.14585831  0.44727682     0.38700
O391        O  0.10798296  0.17644310  0.91950677    -0.81300
O392        O  0.11375600  0.08744411  0.94895384    -0.65900
O393        O  0.12902504  0.14206550  0.93857621    -1.12500
C394        C  0.13273400  0.12642401  0.80742031     1.05600
O395        O  0.13919318  0.07754161  0.90870105    -0.79200
O396        O  0.16492603  0.10564283  0.87818016    -0.66700
Ni397      Ni  0.11337370  0.16225388  0.96492301     1.34900
C398        C  0.17144060  0.12340441  0.88064368     0.84400
O399        O  0.11994125  0.11688931  0.00022483    -0.79700
O400        O  0.11763410  0.14961606  0.01223122    -0.90000
C401        C  0.12537879  0.07378433  0.93466647     0.83900
O402        O  0.08569891  0.15116141  0.96140588    -0.68200
O403        O  0.13791900  0.10925646  0.81846531    -0.87500
C404        C  0.07853169  0.13444092  0.95094283     0.84800
C405        C  0.11918369  0.13180417  0.02314663     1.06300
H406        H  0.10723161  0.11264931  0.88157747     0.38100
O407        O  0.12139530  0.11453709  0.89065597    -1.10100
O408        O  0.15911577  0.13827066  0.88121707    -0.66800
Ni409      Ni  0.12867631  0.14194319  0.88420765     1.26300
O410        O  0.09040047  0.11966872  0.94340866    -0.67000
O411        O  0.12746702  0.14055897  0.83004000    -0.79300
C412        C  0.12248796  0.18253847  0.89708141     0.84200
O413        O  0.13479213  0.16999824  0.88091324    -0.66500
Ni414      Ni  0.13809095  0.09478267  0.86527118     1.27400
Ni415      Ni  0.12060262  0.11509991  0.94515246     1.26100
H416        H  0.14350492  0.14330671  0.94655494     0.38700
O417        O  0.92277004  0.36349817  0.38035285    -0.81300
O418        O  0.82734612  0.36372430  0.35078954    -0.65900
O419        O  0.88460472  0.38052765  0.36064068    -1.12500
C420        C  0.86580874  0.37923394  0.49261147     1.05600
O421        O  0.81845123  0.38874638  0.38839298    -0.79200
O422        O  0.84347477  0.41128200  0.43286684    -0.66700
Ni423      Ni  0.90705355  0.36685816  0.33462619     1.34900
C424        C  0.86146147  0.41906946  0.42583325     0.84400
O425        O  0.85821390  0.37216889  0.29939358    -0.79700
O426        O  0.89331462  0.37016059  0.28696756    -0.90000
C427        C  0.81319977  0.37446590  0.36665237     0.83900
O428        O  0.89680051  0.34017672  0.33897002    -0.68200
O429        O  0.84665758  0.38068723  0.48208586    -0.87500
C430        C  0.87889173  0.33263792  0.34754005     0.84800
C431        C  0.87424862  0.37242182  0.27656695     1.06300
H432        H  0.85509537  0.35776104  0.41682504     0.38100
O433        O  0.85570272  0.37129480  0.40846597    -1.10100
O434        O  0.87760012  0.40856169  0.41706833    -0.66800
Ni435      Ni  0.88381397  0.38041101  0.41508637     1.26300
O436        O  0.86251968  0.34325615  0.35365939    -0.67000
O437        O  0.88184555  0.37945569  0.46971521    -0.79300
C438        C  0.92729818  0.37746936  0.40346964     0.84200
O439        O  0.91275525  0.38810486  0.41839815    -0.66500
Ni440      Ni  0.83322287  0.38460640  0.43453059     1.27400
Ni441      Ni  0.85637658  0.37135988  0.35403313     1.26100
H442        H  0.88528511  0.39406684  0.35235755     0.38700
O443        O  0.88756616  0.33002670  0.88576907    -0.81300
O444        O  0.88107957  0.41885954  0.92061110    -0.65900
O445        O  0.86650945  0.36440780  0.90757476    -1.12500
C446        C  0.86600942  0.38051872  0.77676111     1.05600
O447        O  0.85586776  0.42757112  0.88206328    -0.79200
O448        O  0.83207554  0.40069309  0.84567747    -0.66700
Ni449      Ni  0.88179347  0.34437204  0.93228656     1.34900
C450        C  0.82530165  0.38315014  0.85003420     0.84400
O451        O  0.87289627  0.38979487  0.97054563    -0.79700
O452        O  0.87688143  0.35719184  0.98052599    -0.90000
C453        C  0.87024792  0.43212265  0.90522423     0.83900
O454        O  0.90956415  0.35560371  0.92897149    -0.68200
O455        O  0.86217813  0.39804505  0.78874687    -0.87500
C456        C  0.91652723  0.37292542  0.92280706     0.84800
C457        C  0.87448202  0.37497662  0.99245701     1.06300
H458        H  0.88986949  0.39345121  0.85254009     0.38100
O459        O  0.87532477  0.39182174  0.86111719    -1.10100
O460        O  0.83750963  0.36837037  0.85257929    -0.66800
Ni461      Ni  0.86782288  0.36465705  0.85307225     1.26300
O462        O  0.90446336  0.38731174  0.91573878    -0.67000
O463        O  0.86947337  0.36604925  0.79856249    -0.79300
C464        C  0.87317157  0.32432442  0.86350744     0.84200
O465        O  0.86149303  0.33697706  0.84824276    -0.66500
Ni466      Ni  0.85952294  0.41169981  0.83668914     1.27400
Ni467      Ni  0.87426280  0.39138080  0.91568777     1.26100
H468        H  0.85190780  0.36297629  0.91592167     0.38700
O469        O  0.86932049  0.68021006  0.01484076    -0.81300
O470        O  0.87266457  0.58775855  0.97808656    -0.65900
O471        O  0.85758182  0.64117049  0.00122403    -1.12500
C472        C  0.86249603  0.61987995  0.12870416     1.05600
O473        O  0.84933079  0.57581685  0.01954199    -0.79200
O474        O  0.82621044  0.60172731  0.06136710    -0.66700
Ni475      Ni  0.87344784  0.66110763  0.97460084     1.34900
C476        C  0.81959085  0.61938895  0.06283059     0.84400
O477        O  0.86063738  0.61755731  0.93574487    -0.79700
O478        O  0.87875110  0.64549066  0.92874510    -0.90000
C479        C  0.86172365  0.57350808  0.99088442     0.83900
O480        O  0.89912246  0.65257151  0.99562584    -0.68200
O481        O  0.85690584  0.60313926  0.11494079    -0.87500
C482        C  0.90706864  0.63557402  0.98970502     0.84800
C483        C  0.86980231  0.63021402  0.91491441     1.06300
H484        H  0.88379809  0.61001094  0.04670160     0.38100
O485        O  0.86900367  0.61195004  0.04167851    -1.10100
O486        O  0.83192980  0.63436376  0.06284800    -0.66800
Ni487      Ni  0.86205314  0.63863689  0.05515416     1.26300
O488        O  0.89563847  0.62033400  0.98240976    -0.67000
O489        O  0.86645897  0.63491870  0.10829369    -0.79300
C490        C  0.86145935  0.68103350  0.04837279     0.84200
O491        O  0.85636908  0.66582571  0.06726143    -0.66500
Ni492      Ni  0.85372474  0.59089259  0.06581114     1.27400
Ni493      Ni  0.86537816  0.61456931  0.98859764     1.26100
H494        H  0.84272543  0.64292384  0.99634833     0.38700
O495        O  0.88544709  0.67016796  0.52031780    -0.81300
O496        O  0.87611422  0.58006326  0.47975625    -0.65900
O497        O  0.86338902  0.63486039  0.50072031    -1.12500
C498        C  0.86603299  0.61693313  0.62954618     1.05600
O499        O  0.85468897  0.56875846  0.52551112    -0.79200
O500        O  0.83020395  0.59696922  0.56038757    -0.66700
Ni501      Ni  0.87817348  0.65558384  0.47474659     1.34900
C502        C  0.82393197  0.61480037  0.56068571     0.84400
O503        O  0.86690444  0.61071063  0.43512338    -0.79700
O504        O  0.87193968  0.64338574  0.42685265    -0.90000
C505        C  0.86633408  0.56584727  0.49592440     0.83900
O506        O  0.90561147  0.64416497  0.47407537    -0.68200
O507        O  0.85953560  0.60015400  0.61738723    -0.87500
C508        C  0.91237467  0.62668652  0.47741892     0.84800
C509        C  0.86782703  0.62602778  0.41431389     1.06300
H510        H  0.88802951  0.60418584  0.54863804     0.38100
O511        O  0.87329948  0.60619272  0.54306155    -1.10100
O512        O  0.83655616  0.62956558  0.56106304    -0.66800
Ni513      Ni  0.86671896  0.63352213  0.55429852     1.26300
O514        O  0.90028909  0.61189896  0.48341946    -0.67000
O515        O  0.87053010  0.63129806  0.60782097    -0.79300
C516        C  0.87270571  0.67464132  0.54750364     0.84200
O517        O  0.86100049  0.66136202  0.56241724    -0.66500
Ni518      Ni  0.85749613  0.58615099  0.56939193     1.27400
Ni519      Ni  0.87020550  0.60778759  0.48899821     1.26100
H520        H  0.84857637  0.63657498  0.49553901     0.38700
O521        O  0.60134973  0.67431632  0.14724049    -0.81300
O522        O  0.60818505  0.58553115  0.19040477    -0.65900
O523        O  0.62190223  0.63959743  0.16965005    -1.12500
C524        C  0.62300411  0.61822761  0.04103853     1.05600
O525        O  0.63158846  0.57349307  0.14836649    -0.79200
O526        O  0.65638980  0.60032583  0.11181464    -0.66700
Ni527      Ni  0.60633523  0.66069141  0.19393960     1.34900
C528        C  0.66280454  0.61815423  0.11163508     0.84400
O529        O  0.61636987  0.61691414  0.23509944    -0.79700
O530        O  0.61011642  0.64942581  0.24316744    -0.90000
C531        C  0.61912708  0.57123744  0.17696868     0.83900
O532        O  0.57888736  0.64926495  0.19029279    -0.68200
O533        O  0.62797584  0.60149110  0.05429509    -0.87500
C534        C  0.57216376  0.63162965  0.18716494     0.84800
C535        C  0.61379852  0.63231103  0.25615052     1.06300
H536        H  0.59842749  0.60767550  0.12018675     0.38100
O537        O  0.61298479  0.60984348  0.12706112    -1.10100
O538        O  0.65036702  0.63288658  0.11151060    -0.66800
Ni539      Ni  0.62015590  0.63679917  0.11570450     1.26300
O540        O  0.58428410  0.61672340  0.18396398    -0.67000
O541        O  0.61798311  0.63311282  0.06193446    -0.79300
C542        C  0.61517765  0.67800936  0.12154247     0.84200
O543        O  0.62659802  0.66423780  0.10738692    -0.66500
Ni544      Ni  0.62916820  0.58906831  0.10301165     1.27400
Ni545      Ni  0.61452115  0.61284144  0.18117319     1.26100
H546        H  0.63654062  0.64155263  0.17619294     0.38700
O547        O  0.60513761  0.67376437  0.65153724    -0.81300
O548        O  0.61063234  0.58530508  0.68607171    -0.65900
O549        O  0.62630633  0.63922071  0.67028861    -1.12500
C550        C  0.62609105  0.62014372  0.54052234     1.05600
O551        O  0.63611786  0.57460037  0.64659128    -0.79200
O552        O  0.66089099  0.60170687  0.61039322    -0.66700
Ni553      Ni  0.61198837  0.66015001  0.69710766     1.34900
C554        C  0.66718966  0.61955623  0.60971475     0.84400
O555        O  0.61892578  0.61537938  0.73396903    -0.79700
O556        O  0.61771328  0.64827726  0.74481752    -0.90000
C557        C  0.62292460  0.57169819  0.67397260     0.83900
O558        O  0.58409493  0.64936275  0.69827579    -0.68200
O559        O  0.63198555  0.60341629  0.55287784    -0.87500
C560        C  0.57631422  0.63249298  0.69050550     0.84800
C561        C  0.61922222  0.63052353  0.75613496     1.06300
H562        H  0.60247703  0.60852775  0.61759413     0.38100
O563        O  0.61718067  0.61069374  0.62545865    -1.10100
O564        O  0.65462491  0.63421043  0.61042777    -0.66800
Ni565      Ni  0.62432054  0.63777141  0.61613116     1.26300
O566        O  0.58760202  0.61756986  0.68111726    -0.67000
O567        O  0.62175669  0.63499984  0.56214169    -0.79300
C568        C  0.61848113  0.67852765  0.62575004     0.84200
O569        O  0.63028572  0.66546776  0.61005905    -0.66500
Ni570      Ni  0.63366026  0.59038197  0.60123381     1.27400
Ni571      Ni  0.61778531  0.61259252  0.67956478     1.26100
H572        H  0.64105479  0.64035527  0.67666329     0.38700
O573        O  0.59826096  0.32730779  0.30186821    -0.81300
O574        O  0.60855749  0.41853419  0.26865892    -0.65900
O575        O  0.61899304  0.36360181  0.28474036    -1.12500
C576        C  0.62029677  0.38001288  0.41378359     1.05600
O577        O  0.62752437  0.43063571  0.31631196    -0.79200
O578        O  0.65320101  0.39980720  0.33397837    -0.66700
Ni579      Ni  0.60326787  0.34364230  0.25791960     1.34900
C580        C  0.65854864  0.38176975  0.33567311     0.84400
O581        O  0.61702698  0.38834712  0.22164981    -0.79700
O582        O  0.60722344  0.35689611  0.21037733    -0.90000
C583        C  0.61729765  0.43293372  0.28595520     0.83900
O584        O  0.57618409  0.35545614  0.26594343    -0.68200
O585        O  0.63004197  0.39515452  0.40099023    -0.87500
C586        C  0.57039590  0.37337552  0.26914290     0.84800
C587        C  0.61294059  0.37395702  0.19911535     1.06300
H588        H  0.59535390  0.39575058  0.33723172     0.38100
O589        O  0.60986656  0.39274970  0.33012442    -1.10100
O590        O  0.64528646  0.36810240  0.34345083    -0.66800
Ni591      Ni  0.61506450  0.36529212  0.33869938     1.26300
O592        O  0.58320475  0.38787267  0.27194078    -0.67000
O593        O  0.61065876  0.36787326  0.39233428    -0.79300
C594        C  0.61066568  0.32379179  0.32884969     0.84200
O595        O  0.62041068  0.33775824  0.34536788    -0.66500
Ni596      Ni  0.62809042  0.41115276  0.35598446     1.27400
Ni597      Ni  0.61339659  0.39093049  0.27578039     1.26100
H598        H  0.63374541  0.36127955  0.27843260     0.38700
O599        O  0.60540636  0.32942987  0.81002016    -0.81300
O600        O  0.61230287  0.41932795  0.76576698    -0.65900
O601        O  0.62506957  0.36499156  0.78494671    -1.12500
C602        C  0.62480720  0.38766242  0.91400193     1.05600
O603        O  0.63782851  0.42904265  0.80345008    -0.79200
O604        O  0.65988394  0.40457683  0.84703746    -0.66700
Ni605      Ni  0.60873693  0.34393529  0.76320217     1.34900
C606        C  0.66643898  0.38693868  0.84322398     0.84400
O607        O  0.61937584  0.38783940  0.71981795    -0.79700
O608        O  0.61072645  0.35567016  0.71379894    -0.90000
C609        C  0.62407926  0.43298966  0.77897210     0.83900
O610        O  0.58171683  0.35534310  0.77294912    -0.68200
O611        O  0.62789555  0.40491730  0.90067224    -0.87500
C612        C  0.57538055  0.37308238  0.77540734     0.84800
C613        C  0.61515553  0.37250892  0.69971543     1.06300
H614        H  0.60220324  0.39660585  0.83632177     0.38100
O615        O  0.61678090  0.39475277  0.82815512    -1.10100
O616        O  0.65416196  0.37215866  0.83902927    -0.66800
Ni617      Ni  0.62398616  0.36811236  0.83911087     1.26300
O618        O  0.58776179  0.38797724  0.77415221    -0.67000
O619        O  0.62254990  0.37217021  0.89322027    -0.79300
C620        C  0.61886405  0.32685001  0.83573752     0.84200
O621        O  0.63040095  0.34096110  0.84749130    -0.66500
Ni622      Ni  0.63233937  0.41591784  0.85099166     1.27400
Ni623      Ni  0.61804529  0.39183454  0.77392503     1.26100
H624        H  0.63957803  0.36287922  0.77656312     0.38700
O625        O  0.17290786  0.61389398  0.04848438    -0.81300
O626        O  0.07746060  0.62113018  0.01287252    -0.65900
O627        O  0.13593324  0.63351418  0.02663836    -1.12500
C628        C  0.11394143  0.63736950  0.15709159     1.05600
O629        O  0.06973941  0.64749795  0.04769705    -0.79200
O630        O  0.09673167  0.66952490  0.08800336    -0.66700
Ni631      Ni  0.15778790  0.61831224  0.00214324     1.34900
C632        C  0.11581746  0.67501832  0.08300096     0.84400
O633        O  0.11018737  0.62644622  0.96390132    -0.79700
O634        O  0.14513673  0.62216515  0.95353354    -0.90000
C635        C  0.06385179  0.63311583  0.02678734     0.83900
O636        O  0.14512396  0.59250394  0.00553326    -0.68200
O637        O  0.09567470  0.64159340  0.14470397    -0.87500
C638        C  0.12624493  0.58638252  0.01114816     0.84800
C639        C  0.12642747  0.62506937  0.94180276     1.06300
H640        H  0.10237743  0.61453615  0.08178720     0.38100
O641        O  0.10492112  0.62773422  0.07256228    -1.10100
O642        O  0.13112628  0.66283190  0.08042048    -0.66800
Ni643      Ni  0.13379851  0.63417380  0.08104389     1.26300
O644        O  0.11088191  0.59812426  0.01859372    -0.67000
O645        O  0.13023619  0.63442221  0.13551778    -0.79300
C646        C  0.17717081  0.62649827  0.07462378     0.84200
O647        O  0.16338100  0.63876188  0.08691829    -0.66500
Ni648      Ni  0.08357731  0.64424413  0.09521275     1.27400
Ni649      Ni  0.10706783  0.62664516  0.01819697     1.26100
H650        H  0.13793132  0.64688165  0.01790787     0.38700
O651        O  0.17659506  0.61980008  0.54942728    -0.81300
O652        O  0.08147280  0.61918979  0.51217898    -0.65900
O653        O  0.13846871  0.63595711  0.52622786    -1.12500
C654        C  0.11598381  0.63671219  0.65695634     1.05600
O655        O  0.07142855  0.64443013  0.54835274    -0.79200
O656        O  0.09547433  0.66746769  0.59316026    -0.66700
Ni657      Ni  0.16160816  0.62224310  0.50260566     1.34900
C658        C  0.11337612  0.67519138  0.58556281     0.84400
O659        O  0.11364898  0.62702630  0.46311190    -0.79700
O660        O  0.14884465  0.62408690  0.45356920    -0.90000
C661        C  0.06689849  0.63006217  0.52633366     0.83900
O662        O  0.15153280  0.59561526  0.50765729    -0.68200
O663        O  0.09720825  0.63788780  0.64459302    -0.87500
C664        C  0.13314705  0.58812782  0.51178375     0.84800
C665        C  0.13005896  0.62560992  0.44128255     1.06300
H666        H  0.10745004  0.61377875  0.58062940     0.38100
O667        O  0.10826576  0.62724456  0.57194722    -1.10100
O668        O  0.12988459  0.66470912  0.57948576    -0.66800
Ni669      Ni  0.13612569  0.63656461  0.58064489     1.26300
O670        O  0.11662883  0.59867663  0.51720955    -0.67000
O671        O  0.13253626  0.63644542  0.63525505    -0.79300
C672        C  0.17985853  0.63314520  0.57465973     0.84200
O673        O  0.16493447  0.64424241  0.58660937    -0.66500
Ni674      Ni  0.08512986  0.64089993  0.59572112     1.27400
Ni675      Ni  0.11042176  0.62681283  0.51755639     1.26100
H676        H  0.13937246  0.64938367  0.51734551     0.38700
O677        O  0.14373002  0.43577993  0.42255211    -0.81300
O678        O  0.13074876  0.34552076  0.38210293    -0.65900
O679        O  0.12101938  0.40092744  0.40313779    -1.12500
C680        C  0.12472472  0.38132614  0.53184049     1.05600
O681        O  0.10745683  0.33665758  0.42608495    -0.79200
O682        O  0.08733365  0.36387406  0.46873521    -0.66700
Ni683      Ni  0.13751482  0.42054580  0.37730664     1.34900
C684        C  0.08096475  0.38149993  0.46521952     0.84400
O685        O  0.12230009  0.37649744  0.33780583    -0.79700
O686        O  0.13221240  0.40799912  0.32923944    -0.90000
C687        C  0.11970966  0.33215331  0.39818729     0.83900
O688        O  0.16437581  0.40791174  0.38059768    -0.68200
O689        O  0.11979837  0.36418284  0.51923510    -0.87500
C690        C  0.16950558  0.38985059  0.38255014     0.84800
C691        C  0.12574365  0.39131200  0.31653368     1.06300
H692        H  0.14442316  0.36959428  0.45012533     0.38100
O693        O  0.12967632  0.37183127  0.44505788    -1.10100
O694        O  0.09361727  0.39613293  0.46214349    -0.66800
Ni695      Ni  0.12397024  0.39923578  0.45691552     1.26300
O696        O  0.15624039  0.37578919  0.38510196    -0.67000
O697        O  0.12713874  0.39641047  0.51079083    -0.79300
C698        C  0.13163012  0.44038081  0.45064743     0.84200
O699        O  0.11952012  0.42732628  0.46555271    -0.66500
Ni700      Ni  0.11423097  0.35171141  0.47126273     1.27400
Ni701      Ni  0.12612976  0.37348179  0.39134185     1.26100
H702        H  0.10640885  0.40357518  0.39761536     0.38700
O703        O  0.13558977  0.43593927  0.92289222    -0.81300
O704        O  0.13221567  0.34449157  0.88805232    -0.65900
O705        O  0.11752225  0.39934245  0.90068860    -1.12500
C706        C  0.11357794  0.38238259  0.03151772     1.05600
O707        O  0.10542597  0.33569837  0.92549955    -0.79200
O708        O  0.08126056  0.36176379  0.96523080    -0.66700
Ni709      Ni  0.13438360  0.41950640  0.87748941     1.34900
C710        C  0.07422882  0.37879572  0.95799906     0.84400
O711        O  0.12551146  0.37366446  0.83846573    -0.79700
O712        O  0.13427932  0.40556228  0.82936383    -0.90000
C713        C  0.12002963  0.33119456  0.90151955     0.83900
O714        O  0.16142702  0.40898691  0.88860723    -0.68200
O715        O  0.11145962  0.36458768  0.01958322    -0.87500
C716        C  0.16814554  0.39138905  0.89088901     0.84800
C717        C  0.13010530  0.38815494  0.81693440     1.06300
H718        H  0.13911274  0.37088465  0.95595289     0.38100
O719        O  0.12479877  0.37190919  0.94720548    -1.10100
O720        O  0.08613668  0.39382164  0.95299833    -0.66800
Ni721      Ni  0.11621407  0.39887265  0.95509601     1.26300
O722        O  0.15572329  0.37652402  0.89203095    -0.67000
O723        O  0.11529083  0.39725726  0.00971524    -0.79300
C724        C  0.12049354  0.44014979  0.94614417     0.84200
O725        O  0.10892669  0.42648438  0.96013604    -0.66500
Ni726      Ni  0.10891490  0.35130696  0.97141574     1.27400
Ni727      Ni  0.12543693  0.37220025  0.89286532     1.26100
H728        H  0.10337022  0.40081921  0.89126461     0.38700
O729        O  0.35408436  0.42908319  0.33047391    -0.81300
O730        O  0.36210198  0.33996626  0.36689276    -0.65900
O731        O  0.37512019  0.39414123  0.34782423    -1.12500
C732        C  0.37559618  0.37811952  0.21915169     1.05600
O733        O  0.37658661  0.32673598  0.31385463    -0.79200
O734        O  0.40572406  0.35554334  0.29603091    -0.66700
Ni735      Ni  0.36099634  0.41492810  0.37528961     1.34900
C736        C  0.41288530  0.37307500  0.29307117     0.84400
O737        O  0.37255790  0.37039416  0.41197342    -0.79700
O738        O  0.36709179  0.40287976  0.42238067    -0.90000
C739        C  0.36779134  0.32517804  0.34650276     0.83900
O740        O  0.33327604  0.40370249  0.37620241    -0.68200
O741        O  0.38406388  0.36249434  0.23115879    -0.87500
C742        C  0.32642916  0.38605649  0.37416026     0.84800
C743        C  0.37109851  0.38557735  0.43400125     1.06300
H744        H  0.34877234  0.36349616  0.29903581     0.38100
O745        O  0.36360054  0.36557132  0.30404001    -1.10100
O746        O  0.40096428  0.38779129  0.28691607    -0.66800
Ni747      Ni  0.37093342  0.39259592  0.29453783     1.26300
O748        O  0.33830187  0.37131704  0.36676361    -0.67000
O749        O  0.36628001  0.39040472  0.24130580    -0.79300
C750        C  0.36748837  0.43345231  0.30451378     0.84200
O751        O  0.37795879  0.41985518  0.28778530    -0.66500
Ni752      Ni  0.37981705  0.34634447  0.27540970     1.27400
Ni753      Ni  0.36815293  0.36732301  0.35823332     1.26100
H754        H  0.39002508  0.39589202  0.35250617     0.38700
O755        O  0.35497194  0.42938254  0.82888163    -0.81300
O756        O  0.36313232  0.34021272  0.86591665    -0.65900
O757        O  0.37616930  0.39492473  0.84876030    -1.12500
C758        C  0.37521072  0.37457162  0.71893972     1.05600
O759        O  0.38858281  0.33136168  0.82531988    -0.79200
O760        O  0.41018443  0.35712159  0.78217941    -0.66700
Ni761      Ni  0.36111891  0.41556223  0.87467004     1.34900
C762        C  0.41700578  0.37469743  0.78627314     0.84400
O763        O  0.37128940  0.37109912  0.91289588    -0.79700
O764        O  0.36618753  0.40368750  0.92255596    -0.90000
C765        C  0.37536415  0.32704783  0.85169117     0.83900
O766        O  0.33366751  0.40398655  0.87381730    -0.68200
O767        O  0.37838953  0.35718840  0.73106869    -0.87500
C768        C  0.32689217  0.38646555  0.86903183     0.84800
C769        C  0.36959910  0.38633244  0.93467306     1.06300
H770        H  0.35284459  0.36407765  0.79801342     0.38100
O771        O  0.36743915  0.36602937  0.80469802    -1.10100
O772        O  0.40486260  0.38950733  0.79127968    -0.66800
Ni773      Ni  0.37455153  0.39309630  0.79465191     1.26300
O774        O  0.33885748  0.37168767  0.86239813    -0.67000
O775        O  0.37294094  0.38985558  0.74048979    -0.79300
C776        C  0.36841173  0.43424321  0.80320758     0.84200
O777        O  0.38018039  0.42099962  0.78773439    -0.66500
Ni778      Ni  0.38286037  0.34537884  0.77940804     1.27400
Ni779      Ni  0.36909913  0.36793752  0.85878333     1.26100
H780        H  0.39079073  0.39677125  0.85543204     0.38700
O781        O  0.35636599  0.57752976  0.19766462    -0.81300
O782        O  0.36573293  0.66724098  0.15470972    -0.65900
O783        O  0.37653421  0.61324031  0.17678530    -1.12500
C784        C  0.37836610  0.63240130  0.30445716     1.05600
O785        O  0.37667010  0.68208663  0.20781242    -0.79200
O786        O  0.40695275  0.65363313  0.21969972    -0.66700
Ni787      Ni  0.36017943  0.59302148  0.15243943     1.34900
C788        C  0.41468927  0.63639366  0.22267780     0.84400
O789        O  0.37664599  0.63605509  0.11240454    -0.79700
O790        O  0.36283806  0.60566946  0.10388437    -0.90000
C791        C  0.36913556  0.68263633  0.17470989     0.83900
O792        O  0.33328670  0.60472800  0.16241297    -0.68200
O793        O  0.38794436  0.64699830  0.28948908    -0.87500
C794        C  0.32758504  0.62257696  0.15978250     0.84800
C795        C  0.37097700  0.62162514  0.09123404     1.06300
H796        H  0.35070584  0.64483694  0.22550076     0.38100
O797        O  0.36559076  0.64282685  0.21973099    -1.10100
O798        O  0.40342711  0.62147244  0.23266656    -0.66800
Ni799      Ni  0.37309826  0.61609943  0.23037888     1.26300
O800        O  0.34077732  0.63684687  0.15782900    -0.67000
O801        O  0.36907281  0.61943394  0.28431792    -0.79300
C802        C  0.36854057  0.57510753  0.22543458     0.84200
O803        O  0.37981871  0.58910721  0.23842655    -0.66500
Ni804      Ni  0.38191604  0.66265648  0.24561046     1.27400
Ni805      Ni  0.37085419  0.64008922  0.16545106     1.26100
H806        H  0.39118622  0.61062474  0.17015004     0.38700
O807        O  0.35485444  0.58398048  0.69793028    -0.81300
O808        O  0.36834676  0.67383408  0.66186868    -0.65900
O809        O  0.37805223  0.61840854  0.67829071    -1.12500
C810        C  0.38105320  0.63382961  0.80689962     1.05600
O811        O  0.38300731  0.68590487  0.71464183    -0.79200
O812        O  0.41108857  0.65536374  0.72433158    -0.66700
Ni813      Ni  0.36224693  0.59837823  0.65263901     1.34900
C814        C  0.41765747  0.63761258  0.72584930     0.84400
O815        O  0.37642675  0.64268639  0.61437326    -0.79700
O816        O  0.36829021  0.61051064  0.60479006    -0.90000
C817        C  0.37441833  0.68832332  0.68276228     0.83900
O818        O  0.33535940  0.61079864  0.65627820    -0.68200
O819        O  0.39150359  0.64830579  0.79332783    -0.87500
C820        C  0.32969471  0.62870412  0.65956981     0.84800
C821        C  0.37347292  0.62757139  0.59258037     1.06300
H822        H  0.35428803  0.64993831  0.73082649     0.38100
O823        O  0.36889965  0.64723088  0.72387006    -1.10100
O824        O  0.40527719  0.62341615  0.73542033    -0.66800
Ni825      Ni  0.37468289  0.61981180  0.73209704     1.26300
O826        O  0.34254482  0.64304726  0.66414408    -0.67000
O827        O  0.37064569  0.62215668  0.78581801    -0.79300
C828        C  0.36714531  0.57900814  0.72400433     0.84200
O829        O  0.37954349  0.59189233  0.73817747    -0.66500
Ni830      Ni  0.38670016  0.66536316  0.75089925     1.27400
Ni831      Ni  0.37272640  0.64576519  0.66902433     1.26100
H832        H  0.39274088  0.61594903  0.67160436     0.38700
C833        C  0.37779097  0.61096896  0.90520142    -0.11700
C834        C  0.37798379  0.62802981  0.92841433     0.14800
C835        C  0.38007426  0.64673016  0.91162789     0.01700
C836        C  0.38183561  0.64800179  0.87211609    -0.16100
C837        C  0.38107041  0.63100975  0.84856173    -0.10900
C838        C  0.37944206  0.61222258  0.86557291     0.08400
C839        C  0.37621468  0.62593593  0.97007194     0.09400
S840        S  0.37997735  0.66952548  0.93903366    -0.25200
H841        H  0.38301843  0.66251803  0.85962009     0.19700
S842        S  0.38025885  0.58932582  0.83868063    -0.30900
H843        H  0.37654558  0.59656137  0.91813772     0.10000
C844        C  0.35691620  0.62043504  0.98788825     0.03200
C845        C  0.35574062  0.61908634  0.02753452    -0.13200
C846        C  0.37341657  0.62330779  0.04973751    -0.08900
C847        C  0.39280888  0.62864948  0.03177318     0.06700
C848        C  0.39395653  0.63001233  0.99215736    -0.14000
S849        S  0.33357615  0.61593807  0.96027230    -0.30900
H850        H  0.34089448  0.61506157  0.04145926     0.10900
S851        S  0.41673442  0.63325528  0.05753118    -0.28000
H852        H  0.40881635  0.63414027  0.97835037     0.08200
H853        H  0.39584380  0.59587042  0.81248345     0.26600
H854        H  0.31990859  0.61104201  0.99086972     0.21400
H855        H  0.41255019  0.61931394  0.08598901     0.26700
H856        H  0.36565750  0.66308792  0.96748980     0.15500
C857        C  0.38112560  0.61363897  0.40628669    -0.11700
C858        C  0.37669978  0.63105387  0.42741120     0.14800
C859        C  0.37274492  0.64861578  0.40767505     0.01700
C860        C  0.37395548  0.64852696  0.36786053    -0.16100
C861        C  0.37812559  0.63111188  0.34663245    -0.10900
C862        C  0.38168376  0.61341373  0.36632400     0.08400
C863        C  0.37596335  0.63036263  0.46980438     0.09400
S864        S  0.36529032  0.67148331  0.43140079    -0.25200
H865        H  0.37088409  0.66214433  0.35319208     0.19700
S866        S  0.38751495  0.59023191  0.34237590    -0.30900
H867        H  0.38419071  0.60007920  0.42113398     0.10000
C868        C  0.36032289  0.61921156  0.48917311     0.03200
C869        C  0.35998762  0.61888712  0.52899335    -0.13200
C870        C  0.37500144  0.62936980  0.55048379    -0.08900
C871        C  0.39084301  0.64039505  0.53105305     0.06700
C872        C  0.39098972  0.64097123  0.49107287    -0.14000
S873        S  0.34022597  0.60587433  0.46330620    -0.30900
H874        H  0.34772559  0.61049760  0.54362335     0.10900
S875        S  0.41188235  0.65307003  0.55532039    -0.28000
H876        H  0.40318664  0.64941613  0.47634476     0.08200
H877        H  0.39957530  0.59856247  0.31253961     0.26600
H878        H  0.33004175  0.59718552  0.49489217     0.21400
H879        H  0.41412579  0.63870272  0.58337183     0.26700
H880        H  0.35489398  0.66285978  0.46280960     0.15500
C881        C  0.38569599  0.48456946  0.76189199    -0.11700
C882        C  0.36870480  0.49671823  0.77381419     0.14800
C883        C  0.35172496  0.48803888  0.79458862     0.01700
C884        C  0.35199731  0.46777927  0.80244020    -0.16100
C885        C  0.36911884  0.45552035  0.79120629    -0.10900
C886        C  0.38630237  0.46434086  0.77084961     0.08400
C887        C  0.36839957  0.51797732  0.76224971     0.09400
S888        S  0.32927255  0.50200236  0.81263350    -0.25200
H889        H  0.33862860  0.46162989  0.81816754     0.19700
S890        S  0.40980108  0.45097969  0.75654828    -0.30900
H891        H  0.39875484  0.49096954  0.74569670     0.10000
C892        C  0.38379519  0.53188496  0.77396193     0.03200
C893        C  0.38289865  0.55157569  0.76144525    -0.13200
C894        C  0.36661506  0.55806489  0.73803714    -0.08900
C895        C  0.35068032  0.54410757  0.72760242     0.06700
C896        C  0.35210419  0.52435366  0.73915918    -0.14000
S897        S  0.40420383  0.52479903  0.80601630    -0.30900
H898        H  0.39507155  0.56196164  0.76988272     0.10900
S899        S  0.32799936  0.55084834  0.70020460    -0.28000
H900        H  0.34031947  0.51366274  0.73026376     0.08200
H901        H  0.41262934  0.44304240  0.79274622     0.26600
H902        H  0.41500586  0.54305070  0.80674448     0.21400
H903        H  0.31636706  0.53320961  0.70478633     0.26700
H904        H  0.34029744  0.51990439  0.81811755     0.15500
C905        C  0.38490809  0.39307506  0.61869212    -0.11700
C906        C  0.37344305  0.37911343  0.59748423     0.14800
C907        C  0.36241110  0.36382650  0.61638771     0.01700
C908        C  0.36322011  0.36273773  0.65597194    -0.16100
C909        C  0.37451802  0.37681724  0.67734640    -0.10900
C910        C  0.38575248  0.39198297  0.65826728     0.08400
C911        C  0.37331604  0.38089082  0.55570763     0.09400
S912        S  0.34695439  0.34539731  0.59163622    -0.25200
H913        H  0.35471921  0.35093213  0.67028602     0.19700
S914        S  0.40250658  0.40957794  0.68238555    -0.30900
H915        H  0.39361424  0.40468113  0.60415514     0.10000
C916        C  0.36219771  0.39623803  0.53880810     0.03200
C917        C  0.36212110  0.39737116  0.49923460    -0.13200
C918        C  0.37298741  0.38351402  0.47572834    -0.08900
C919        C  0.38447652  0.36828940  0.49295317     0.06700
C920        C  0.38430873  0.36704358  0.53268795    -0.14000
S921        S  0.34745245  0.41403940  0.56759889    -0.30900
H922        H  0.35316218  0.40903810  0.48656873     0.10900
S923        S  0.40025203  0.35052286  0.46629720    -0.28000
H924        H  0.39304175  0.35534841  0.54585440     0.08200
H925        H  0.41053146  0.39592363  0.70802315     0.26600
H926        H  0.33808907  0.42396939  0.53754338     0.21400
H927        H  0.40851867  0.36439709  0.44044580     0.26700
H928        H  0.34035966  0.35783428  0.56262911     0.15500
C929        C  0.39337780  0.37677408  0.11546565    -0.11700
C930        C  0.37500401  0.38312691  0.09806558     0.14800
C931        C  0.35758800  0.38965097  0.12072300     0.01700
C932        C  0.35861438  0.38895354  0.16032569    -0.16100
C933        C  0.37664320  0.38171732  0.17786127    -0.10900
C934        C  0.39453766  0.37634228  0.15502427     0.08400
C935        C  0.37480576  0.38364985  0.05623646     0.09400
S936        S  0.33366022  0.39896041  0.10076995    -0.25200
H937        H  0.34489684  0.39331244  0.17748458     0.19700
S938        S  0.41960026  0.36974365  0.17453298    -0.30900
H939        H  0.40703149  0.37246472  0.09807301     0.10000
C940        C  0.37893044  0.40129371  0.03691588     0.03200
C941        C  0.37750766  0.40147942  0.99736579    -0.13200
C942        C  0.37178111  0.38439759  0.97640594    -0.08900
C943        C  0.36786620  0.36658099  0.99618851     0.06700
C944        C  0.36978335  0.36637771  0.03574211    -0.14000
S945        S  0.38613016  0.42357799  0.06267305    -0.30900
H946        H  0.38090320  0.41512501  0.98272919     0.10900
S947        S  0.35929959  0.34392336  0.97346991    -0.28000
H948        H  0.36654171  0.35282685  0.05089252     0.08200
H949        H  0.41741395  0.38254424  0.20613917     0.26600
H950        H  0.38513124  0.43647350  0.03182925     0.21400
H951        H  0.34366320  0.35310728  0.95219131     0.26700
H952        H  0.33390898  0.38640454  0.06855436     0.15500
C953        C  0.37937047  0.48111872  0.25095765    -0.11700
C954        C  0.37379675  0.49532206  0.27881366     0.14800
C955        C  0.36730567  0.48918153  0.31531072     0.01700
C956        C  0.36545773  0.46898919  0.32259801    -0.16100
C957        C  0.37057685  0.45456461  0.29457530    -0.10900
C958        C  0.37821622  0.46087470  0.25856744     0.08400
C959        C  0.37274517  0.51624382  0.26777412     0.09400
S960        S  0.36087006  0.50640123  0.35351458    -0.25200
H961        H  0.36010220  0.46453204  0.35067031     0.19700
S962        S  0.38554350  0.44400235  0.22047513    -0.30900
H963        H  0.38430488  0.48586425  0.22283249     0.10000
C964        C  0.39101806  0.52815075  0.26421664     0.03200
C965        C  0.38913616  0.54768448  0.25189272    -0.13200
C966        C  0.36932002  0.55543211  0.24288439    -0.08900
C967        C  0.35096605  0.54356916  0.24789318     0.06700
C968        C  0.35291571  0.52412288  0.25997883    -0.14000
S969        S  0.41664551  0.51840887  0.27526636    -0.30900
H970        H  0.40319759  0.55673219  0.24799888     0.10900
S971        S  0.32457798  0.55241159  0.24017740    -0.28000
H972        H  0.33884617  0.51499425  0.26328251     0.08200
H973        H  0.40273450  0.43640270  0.24023143     0.26600
H974        H  0.42812461  0.53606512  0.26978700     0.21400
H975        H  0.32861918  0.57177141  0.25348438     0.26700
H976        H  0.37469231  0.52152758  0.34139556     0.15500
C977        C  0.26951470  0.37419658  0.84819906    -0.11700
C978        C  0.25940708  0.38209758  0.88097855     0.14800
C979        C  0.27174666  0.38987427  0.91067707     0.01700
C980        C  0.29374642  0.39052379  0.90616891    -0.16100
C981        C  0.30386204  0.38342233  0.87282516    -0.10900
C982        C  0.29163022  0.37490432  0.84370891     0.08400
C983        C  0.23610581  0.38407998  0.88193664     0.09400
S984        S  0.26044234  0.40022561  0.95416039    -0.25200
H985        H  0.30309714  0.39694960  0.92872216     0.19700
S986        S  0.30317968  0.36613638  0.79930949    -0.30900
H987        H  0.26006830  0.36838015  0.82522832     0.10000
C988        C  0.22659928  0.40218811  0.87357351     0.03200
C989        C  0.20459053  0.40411211  0.87746039    -0.13200
C990        C  0.19160559  0.38835262  0.89001577    -0.08900
C991        C  0.20145574  0.37015260  0.89858247     0.06700
C992        C  0.22345306  0.36817226  0.89378265    -0.14000
S993        S  0.24252622  0.42283609  0.85739287    -0.30900
H994        H  0.19749615  0.41799952  0.87000395     0.10900
S995        S  0.18732188  0.34911848  0.91729598    -0.28000
H996        H  0.23089548  0.35433725  0.90074132     0.08200
H997        H  0.31803786  0.38163986  0.79613970     0.26600
H998        H  0.22639796  0.43709022  0.85974807     0.21400
H999        H  0.17619598  0.36042669  0.94499425     0.26700
H1000       H  0.24133977  0.38951715  0.95399511     0.15500
C1001       C  0.11742908  0.37253887  0.71528375    -0.11700
C1002       C  0.13318694  0.38288673  0.69488776     0.14800
C1003       C  0.14866441  0.39363790  0.71483489     0.01700
C1004       C  0.14731139  0.39481385  0.75451417    -0.16100
C1005       C  0.13112482  0.38506449  0.77514186    -0.10900
C1006       C  0.11618991  0.37351099  0.75509741     0.08400
C1007       C  0.13231890  0.38306083  0.65292166     0.09400
S1008       S  0.17035605  0.40636854  0.69138951    -0.25200
H1009       H  0.15910163  0.40342389  0.76949413     0.19700
S1010       S  0.09449801  0.36067292  0.77821540    -0.30900
H1011       H  0.10558321  0.36417378  0.69996395     0.10000
C1012       C  0.14029476  0.36722745  0.63061174     0.03200
C1013       C  0.13818330  0.36748658  0.59110378    -0.13200
C1014       C  0.12793345  0.38312571  0.57329029    -0.08900
C1015       C  0.11998394  0.39904234  0.59584510     0.06700
C1016       C  0.12258422  0.39898423  0.63530236    -0.14000
S1017       S  0.15316599  0.34670699  0.65254497    -0.30900
H1018       H  0.14433360  0.35528725  0.57393441     0.10900
S1019       S  0.10502552  0.41897946  0.57652816    -0.28000
H1020       H  0.11624490  0.41106682  0.65261162     0.08200
H1021       H  0.08984306  0.37601682  0.80452192     0.26600
H1022       H  0.15774546  0.33591184  0.61886636     0.21400
H1023       H  0.09351105  0.40683234  0.55147043     0.26700
H1024       H  0.17165270  0.39391007  0.65908584     0.15500
C1025       C  0.10865693  0.37412896  0.21735593    -0.11700
C1026       C  0.11792320  0.38893303  0.19484896     0.14800
C1027       C  0.12905938  0.40452498  0.21240044     0.01700
C1028       C  0.13113636  0.40476786  0.25175678    -0.16100
C1029       C  0.12250860  0.38967579  0.27472361    -0.10900
C1030       C  0.11080504  0.37427605  0.25692211     0.08400
C1031       C  0.11659340  0.38731732  0.15304755     0.09400
S1032       S  0.14118470  0.42452983  0.18624833    -0.25200
H1033       H  0.14001038  0.41685878  0.26434392     0.19700
S1034       S  0.09749402  0.35488702  0.28273270    -0.30900
H1035       H  0.09987772  0.36223005  0.20386386     0.10000
C1036       C  0.12879659  0.37327531  0.13246931     0.03200
C1037       C  0.12748955  0.37222367  0.09288601    -0.13200
C1038       C  0.11466253  0.38526474  0.07312489    -0.08900
C1039       C  0.10288418  0.39975972  0.09377235     0.06700
C1040       C  0.10394223  0.40057906  0.13352156    -0.14000
S1041       S  0.14669751  0.35719396  0.15649154    -0.30900
H1042       H  0.13670085  0.36126562  0.07708054     0.10900
S1043       S  0.08590391  0.41723517  0.07146520    -0.28000
H1044       H  0.09481532  0.41158299  0.14941050     0.08200
H1045       H  0.11656461  0.34662084  0.29467576     0.26600
H1046       H  0.15640529  0.34887333  0.12363035     0.21400
H1047       H  0.07885545  0.40412630  0.04300503     0.26700
H1048       H  0.14669511  0.41338020  0.15348575     0.15500
C1049       C  0.22654834  0.38381916  0.35024685    -0.11700
C1050       C  0.23580405  0.37765094  0.38386076     0.14800
C1051       C  0.22280538  0.37407813  0.41625121     0.01700
C1052       C  0.20108091  0.37788288  0.41496740    -0.16100
C1053       C  0.19204758  0.38479933  0.38172880    -0.10900
C1054       C  0.20477738  0.38707258  0.34866687     0.08400
C1055       C  0.25917160  0.37752093  0.38521233     0.09400
S1056       S  0.23306185  0.36486097  0.45987250    -0.25200
H1057       H  0.19120118  0.37570760  0.44017729     0.19700
S1058       S  0.19415335  0.39415068  0.30381183    -0.30900
H1059       H  0.23644429  0.38648924  0.32525395     0.10000
C1060       C  0.27149150  0.36455611  0.36219907     0.03200
C1061       C  0.29353223  0.36721853  0.35990849    -0.13200
C1062       C  0.30348198  0.38249611  0.38052216    -0.08900
C1063       C  0.29113302  0.39433688  0.40605112     0.06700
C1064       C  0.26916260  0.39199242  0.40746316    -0.14000
S1065       S  0.25911052  0.34464757  0.33589337    -0.30900
H1066       H  0.30296738  0.35773669  0.34118450     0.10900
S1067       S  0.30235945  0.41228974  0.43838418    -0.28000
H1068       H  0.25970883  0.40171787  0.42574458     0.08200
H1069       H  0.17433774  0.38489389  0.30921327     0.26600
H1070       H  0.27771519  0.33726884  0.31821639     0.21400
H1071       H  0.32016076  0.40078708  0.44629901     0.26700
H1072       H  0.24995550  0.35431211  0.44264918     0.15500
C1073       C  0.22984297  0.65194328  0.62332117    -0.11700
C1074       C  0.24300212  0.63541331  0.61848862     0.14800
C1075       C  0.23513722  0.61823198  0.60034906     0.01700
C1076       C  0.21442604  0.61791258  0.58758295    -0.16100
C1077       C  0.20120596  0.63452772  0.59146166    -0.10900
C1078       C  0.20906999  0.65179539  0.60987007     0.08400
C1079       C  0.26478070  0.63621104  0.63299292     0.09400
S1080       S  0.25080533  0.59628036  0.59185474    -0.25200
H1081       H  0.20872774  0.60450360  0.57387697     0.19700
S1082       S  0.19356839  0.67411688  0.61480099    -0.30900
H1083       H  0.23605156  0.66508751  0.63719210     0.10000
C1084       C  0.28056110  0.64826099  0.61609819     0.03200
C1085       C  0.30154678  0.64665260  0.62768995    -0.13200
C1086       C  0.30708119  0.63301420  0.65532067    -0.08900
C1087       C  0.29104932  0.62178390  0.67366815     0.06700
C1088       C  0.27009707  0.62356119  0.66240567    -0.14000
S1089       S  0.27445438  0.66431117  0.57739500    -0.30900
H1090       H  0.31392288  0.65501422  0.61328113     0.10900
S1091       S  0.29635809  0.60463113  0.71092866    -0.28000
H1092       H  0.25790874  0.61451033  0.67575760     0.08200
H1093       H  0.20639127  0.68367681  0.64168566     0.26600
H1094       H  0.29411608  0.67418931  0.57580552     0.21400
H1095       H  0.31447659  0.61448732  0.72419252     0.26700
H1096       H  0.27025448  0.60615683  0.58633541     0.15500
C1097       C  0.14817972  0.49448360  0.46905862    -0.11700
C1098       C  0.13062587  0.50218293  0.48937767     0.14800
C1099       C  0.11361691  0.48911961  0.49822094     0.01700
C1100       C  0.11448476  0.46909873  0.48617677    -0.16100
C1101       C  0.13218802  0.46135330  0.46594465    -0.10900
C1102       C  0.14945119  0.47444671  0.45828287     0.08400
C1103       C  0.13033245  0.52400736  0.49881192     0.09400
S1104       S  0.09034275  0.49701161  0.52483280    -0.25200
H1105       H  0.10104625  0.45955112  0.49235063     0.19700
S1106       S  0.17404246  0.46674363  0.43572389    -0.30900
H1107       H  0.16124391  0.50424661  0.46159583     0.10000
C1108       C  0.14678020  0.53341499  0.51913559     0.03200
C1109       C  0.14702599  0.55418800  0.52366914    -0.13200
C1110       C  0.13109802  0.56606395  0.50877737    -0.08900
C1111       C  0.11451925  0.55657182  0.48890635     0.06700
C1112       C  0.11426835  0.53585802  0.48440927    -0.14000
S1113       S  0.16733959  0.51901535  0.54016504    -0.30900
H1114       H  0.15976743  0.56127080  0.53889519     0.10900
S1115       S  0.09412327  0.57009366  0.46580458    -0.28000
H1116       H  0.10184863  0.52896949  0.46802085     0.08200
H1117       H  0.17550250  0.44939913  0.45703372     0.26600
H1118       H  0.17953316  0.53503815  0.55352973     0.21400
H1119       H  0.10815802  0.58410036  0.44990728     0.26700
H1120       H  0.10067110  0.51153788  0.54675322     0.15500
C1121       C  0.10741185  0.64044830  0.84446070    -0.11700
C1122       C  0.12095270  0.62932617  0.82033824     0.14800
C1123       C  0.13585801  0.61666289  0.83626759     0.01700
C1124       C  0.13723449  0.61565111  0.87574040    -0.16100
C1125       C  0.12370284  0.62668358  0.90016584    -0.10900
C1126       C  0.10853566  0.63926117  0.88418278     0.08400
C1127       C  0.11951343  0.63146560  0.77865670     0.09400
S1128       S  0.15339328  0.60124571  0.80765937    -0.25200
H1129       H  0.14881334  0.60585809  0.88749804     0.19700
S1130       S  0.09128072  0.65465272  0.91370058    -0.30900
H1131       H  0.09606604  0.65019780  0.83196133     0.10000
C1132       C  0.10177749  0.62443910  0.75903575     0.03200
C1133       C  0.10116619  0.62646291  0.71955551    -0.13200
C1134       C  0.11805412  0.63517298  0.69881182    -0.08900
C1135       C  0.13592391  0.64210333  0.71876409     0.06700
C1136       C  0.13643367  0.64013017  0.75829831    -0.14000
S1137       S  0.08020907  0.61221484  0.78401726    -0.30900
H1138       H  0.08746332  0.62096267  0.70471570     0.10900
S1139       S  0.15828550  0.65410102  0.69604196    -0.28000
H1140       H  0.15009980  0.64552148  0.77345313     0.08200
H1141       H  0.08256348  0.66554075  0.88424581     0.26600
H1142       H  0.07038693  0.60431325  0.75164019     0.21400
H1143       H  0.14591426  0.66606788  0.67305611     0.26700
H1144       H  0.13886403  0.59729578  0.77880332     0.15500
C1145       C  0.13913135  0.61941638  0.33404664    -0.11700
C1146       C  0.12347235  0.63181907  0.32018018     0.14800
C1147       C  0.10931055  0.64123604  0.34624490     0.01700
C1148       C  0.11124683  0.63828309  0.38532490    -0.16100
C1149       C  0.12730914  0.62633699  0.39943827    -0.10900
C1150       C  0.14102328  0.61634589  0.37311249     0.08400
C1151       C  0.12132548  0.63351316  0.27837853     0.09400
S1152       S  0.08875562  0.65759112  0.33143991    -0.25200
H1153       H  0.10054132  0.64598038  0.40493375     0.19700
S1154       S  0.16047975  0.59864925  0.38716037    -0.30900
H1155       H  0.14963979  0.61166970  0.31415179     0.10000
C1156       C  0.13633614  0.64378509  0.25573854     0.03200
C1157       C  0.13357310  0.64484909  0.21628162    -0.13200
C1158       C  0.11624327  0.63565447  0.19880728    -0.08900
C1159       C  0.10133681  0.62524906  0.22170863     0.06700
C1160       C  0.10393727  0.62447248  0.26105181    -0.14000
S1161       S  0.15859571  0.65610663  0.27725652    -0.30900
H1162       H  0.14469477  0.65322475  0.19901895     0.10900
S1163       S  0.07907110  0.61199645  0.20246802    -0.28000
H1164       H  0.09248187  0.61642228  0.27832314     0.08200
H1165       H  0.14784730  0.59070454  0.41672149     0.26600
H1166       H  0.16767673  0.66357247  0.24350764     0.21400
H1167       H  0.08995975  0.60525615  0.16945293     0.26700
H1168       H  0.10001801  0.66498442  0.29974474     0.15500
C1169       C  0.22325266  0.63217156  0.14234486    -0.11700
C1170       C  0.24060170  0.62871301  0.11757555     0.14800
C1171       C  0.23687414  0.62346176  0.07924218     0.01700
C1172       C  0.21610036  0.62284962  0.06624170    -0.16100
C1173       C  0.19868493  0.62664664  0.09081338    -0.10900
C1174       C  0.20243906  0.63083800  0.12962202     0.08400
C1175       C  0.26227756  0.62956644  0.13295269     0.09400
S1176       S  0.25780843  0.61700824  0.04554546    -0.25200
H1177       H  0.21352593  0.61933585  0.03655154     0.19700
S1178       S  0.18149715  0.63330352  0.16487008    -0.30900
H1179       H  0.22595617  0.63553354  0.17205753     0.10000
C1180       C  0.27742608  0.64364002  0.12070944     0.03200
C1181       C  0.29851897  0.64192029  0.13197831    -0.13200
C1182       C  0.30465939  0.62666572  0.15602247    -0.08900
C1183       C  0.28881998  0.61413149  0.17173761     0.06700
C1184       C  0.26798545  0.61546230  0.15949960    -0.14000
S1185       S  0.26999541  0.66352537  0.09019928    -0.30900
H1186       H  0.31042687  0.65187120  0.12043182     0.10900
S1187       S  0.29405752  0.59623655  0.20766158    -0.28000
H1188       H  0.25618179  0.60513320  0.17020185     0.08200
H1189       H  0.16894216  0.61811324  0.14922707     0.26600
H1190       H  0.28951804  0.67363495  0.09068548     0.21400
H1191       H  0.31033965  0.60729328  0.22468951     0.26700
H1192       H  0.27152692  0.60893771  0.07195916     0.15500
C1193       C  0.11978588  0.49668782  0.94505550    -0.11700
C1194       C  0.11586752  0.50156311  0.98342902     0.14800
C1195       C  0.11175765  0.48605853  0.00922426     0.01700
C1196       C  0.11253104  0.46620356  0.99630680    -0.16100
C1197       C  0.11738628  0.46131179  0.95806461    -0.10900
C1198       C  0.12046122  0.47696790  0.93210833     0.08400
C1199       C  0.11750371  0.52288793  0.99520916     0.09400
S1200       S  0.10618233  0.49051854  0.05911151    -0.25200
H1201       H  0.10998302  0.45447953  0.01655344     0.19700
S1202       S  0.12516108  0.47292847  0.88182678    -0.30900
H1203       H  0.12268767  0.50842922  0.92496119     0.10000
C1204       C  0.13606737  0.53066199  0.01136835     0.03200
C1205       C  0.13817558  0.55124628  0.01749127    -0.13200
C1206       C  0.12216480  0.56451935  0.00755024    -0.08900
C1207       C  0.10350071  0.55653456  0.99142674     0.06700
C1208       C  0.10131835  0.53596636  0.98593944    -0.14000
S1209       S  0.15759239  0.51440291  0.02228896    -0.30900
H1210       H  0.15262434  0.55708680  0.02934137     0.10900
S1211       S  0.08270030  0.57176958  0.97384313    -0.28000
H1212       H  0.08722997  0.53015213  0.97267042     0.08200
H1213       H  0.11174487  0.45631803  0.87894728     0.26600
H1214       H  0.17085979  0.52894983  0.03818716     0.21400
H1215       H  0.09662066  0.58482145  0.95485202     0.26700
H1216       H  0.09873949  0.50993380  0.05586055     0.15500
C1217       C  0.47340131  0.39432750  0.79844476    -0.11700
C1218       C  0.48478697  0.38061157  0.77587557     0.14800
C1219       C  0.47383310  0.36571704  0.75582545     0.01700
C1220       C  0.45187531  0.36434719  0.75988257    -0.16100
C1221       C  0.44028476  0.37765676  0.78329398    -0.10900
C1222       C  0.45131675  0.39297181  0.80254433     0.08400
C1223       C  0.50806856  0.38033456  0.77776411     0.09400
S1224       S  0.48701543  0.34765699  0.72538752    -0.25200
H1225       H  0.44376081  0.35270830  0.74436731     0.19700
S1226       S  0.43852249  0.41011502  0.83511663    -0.30900
H1227       H  0.48188304  0.40556400  0.81439508     0.10000
C1228       C  0.52105660  0.39325434  0.75648457     0.03200
C1229       C  0.54314599  0.39116559  0.75729335    -0.13200
C1230       C  0.55236258  0.37643008  0.77912533    -0.08900
C1231       C  0.53916849  0.36420719  0.80184869     0.06700
C1232       C  0.51724636  0.36613040  0.80052691    -0.14000
S1233       S  0.50946348  0.41156343  0.72675223    -0.30900
H1234       H  0.55321204  0.40048290  0.73974490     0.10900
S1235       S  0.54921586  0.34615156  0.83375611    -0.28000
H1236       H  0.50718440  0.35641863  0.81734235     0.08200
H1237       H  0.42776160  0.39502787  0.85481278     0.26600
H1238       H  0.52854531  0.42111531  0.71643603     0.21400
H1239       H  0.56732725  0.35713889  0.84355791     0.26700
H1240       H  0.50433798  0.35969737  0.71497549     0.15500
C1241       C  0.47164866  0.36685254  0.30979986    -0.11700
C1242       C  0.48025825  0.38082911  0.28476716     0.14800
C1243       C  0.46667601  0.39322805  0.26486486     0.01700
C1244       C  0.44478433  0.39108798  0.26998402    -0.16100
C1245       C  0.43602818  0.37646324  0.29370978    -0.10900
C1246       C  0.44974941  0.36461133  0.31472046     0.08400
C1247       C  0.50340899  0.38114172  0.27871113     0.09400
S1248       S  0.47602261  0.41136509  0.23120018    -0.25200
H1249       H  0.43451729  0.40052596  0.25414735     0.19700
S1250       S  0.44045476  0.34668923  0.34872785    -0.30900
H1251       H  0.48212733  0.35746250  0.32535129     0.10000
C1252       C  0.51680135  0.39093720  0.30440820     0.03200
C1253       C  0.53882161  0.38905972  0.29967520    -0.13200
C1254       C  0.54753229  0.37746935  0.26981427    -0.08900
C1255       C  0.53402322  0.36880327  0.24272386     0.06700
C1256       C  0.51211469  0.37050656  0.24773134    -0.14000
S1257       S  0.50576166  0.40536620  0.34361797    -0.30900
H1258       H  0.54923464  0.39588689  0.32014106     0.10900
S1259       S  0.54382443  0.35564009  0.20099294    -0.28000
H1260       H  0.50174563  0.36332502  0.22758163     0.08200
H1261       H  0.42293393  0.35789465  0.36167676     0.26600
H1262       H  0.52510502  0.41301854  0.35652544     0.21400
H1263       H  0.56217566  0.36731217  0.19619445     0.26700
H1264       H  0.49683080  0.41323187  0.24393617     0.15500
C1265       C  0.63675381  0.37927113  0.51692914    -0.11700
C1266       C  0.61760045  0.37425758  0.53532115     0.14800
C1267       C  0.59971647  0.36973045  0.51339811     0.01700
C1268       C  0.60119169  0.37108622  0.47371736    -0.16100
C1269       C  0.62022983  0.37665038  0.45527110    -0.10900
C1270       C  0.63835576  0.38020574  0.47728666     0.08400
C1271       C  0.61693375  0.37382202  0.57736002     0.09400
S1272       S  0.57447784  0.36264689  0.53426039    -0.25200
H1273       H  0.58721889  0.36822316  0.45717650     0.19700
S1274       S  0.66413946  0.38527941  0.45648945    -0.30900
H1275       H  0.65062787  0.38230244  0.53364436     0.10000
C1276       C  0.62439647  0.35735323  0.59681266     0.03200
C1277       C  0.62371821  0.35749327  0.63662431    -0.13200
C1278       C  0.61564886  0.37375555  0.65766104    -0.08900
C1279       C  0.60784514  0.39016749  0.63791117     0.06700
C1280       C  0.60883958  0.39011089  0.59805655    -0.14000
S1281       S  0.63439857  0.33597670  0.57083512    -0.30900
H1282       H  0.62961070  0.34485589  0.65152134     0.10900
S1283       S  0.59538119  0.41105710  0.66152851    -0.28000
H1284       H  0.60289269  0.40269279  0.58299601     0.08200
H1285       H  0.66155487  0.37257434  0.42486853     0.26600
H1286       H  0.63823969  0.32429944  0.60261442     0.21400
H1287       H  0.58475185  0.39981260  0.68939150     0.26700
H1288       H  0.58233675  0.35412575  0.56715165     0.15500
C1289       C  0.63410429  0.39529198  0.01986380    -0.11700
C1290       C  0.61948435  0.38193899  0.03571996     0.14800
C1291       C  0.60676596  0.37032861  0.01139102     0.01700
C1292       C  0.60921676  0.37208698  0.97191761    -0.16100
C1293       C  0.62375478  0.38557324  0.95591078    -0.10900
C1294       C  0.63661079  0.39703895  0.98043931     0.08400
C1295       C  0.61844544  0.38000302  0.07763433     0.09400
S1296       S  0.58696155  0.35320610  0.02890698    -0.25200
H1297       H  0.59925952  0.36321597  0.95356882     0.19700
S1298       S  0.65736407  0.41331005  0.96345753    -0.30900
H1299       H  0.64409770  0.40401816  0.03840293     0.10000
C1300       C  0.62626287  0.36313520  0.09547796     0.03200
C1301       C  0.62428878  0.36163119  0.13511352    -0.13200
C1302       C  0.61493052  0.37678108  0.15751456    -0.08900
C1303       C  0.60731571  0.39378125  0.13946928     0.06700
C1304       C  0.60939665  0.39529473  0.09988741    -0.14000
S1305       S  0.63931805  0.34379517  0.06788110    -0.30900
H1306       H  0.63030247  0.34867752  0.14884876     0.10900
S1307       S  0.59381585  0.41353798  0.16490605    -0.28000
H1308       H  0.60335620  0.40825623  0.08615544     0.08200
H1309       H  0.66399320  0.40073259  0.93327765     0.26600
H1310       H  0.64190590  0.33065210  0.09794504     0.21400
H1311       H  0.58272707  0.40115703  0.19030333     0.26700
H1312       H  0.58211628  0.36365469  0.06283117     0.15500
C1313       C  0.51840639  0.61916092  0.67310184    -0.11700
C1314       C  0.50843471  0.62884865  0.70420126     0.14800
C1315       C  0.52092150  0.63891838  0.73111914     0.01700
C1316       C  0.54288798  0.63965897  0.72574895    -0.16100
C1317       C  0.55297943  0.63039208  0.69427184    -0.10900
C1318       C  0.54049365  0.62003616  0.66758461     0.08400
C1319       C  0.48502798  0.63014459  0.70598245     0.09400
S1320       S  0.50978959  0.65179004  0.77222716    -0.25200
H1321       H  0.55224618  0.64759769  0.74650617     0.19700
S1322       S  0.55153304  0.60912629  0.62453413    -0.30900
H1323       H  0.50883610  0.61171352  0.65203437     0.10000
C1324       C  0.47477002  0.64760683  0.69580261     0.03200
C1325       C  0.45285578  0.64930729  0.70177007    -0.13200
C1326       C  0.44061851  0.63379510  0.71735986    -0.08900
C1327       C  0.45100737  0.61579869  0.72562996     0.06700
C1328       C  0.47302579  0.61429714  0.72013152    -0.14000
S1329       S  0.48970983  0.66795876  0.67577768    -0.30900
H1330       H  0.44531675  0.66304158  0.69467157     0.10900
S1331       S  0.43756542  0.59441928  0.74454120    -0.28000
H1332       H  0.48095492  0.60080222  0.72770174     0.08200
H1333       H  0.56625934  0.62446162  0.61798337     0.26600
H1334       H  0.47222330  0.67942253  0.66594858     0.21400
H1335       H  0.42428366  0.59245371  0.71314158     0.26700
H1336       H  0.49131665  0.64025625  0.77599961     0.15500
C1337       C  0.64043579  0.52320587  0.71680979    -0.11700
C1338       C  0.62107163  0.51317902  0.72157511     0.14800
C1339       C  0.60212387  0.52316531  0.71346815     0.01700
C1340       C  0.60307915  0.54237939  0.69881172    -0.16100
C1341       C  0.62255126  0.55214367  0.69273839    -0.10900
C1342       C  0.64136352  0.54254419  0.70303887     0.08400
C1343       C  0.62130113  0.49250465  0.73564704     0.09400
S1344       S  0.57629636  0.51219326  0.72102016    -0.25200
H1345       H  0.58851532  0.54965061  0.69154965     0.19700
S1346       S  0.66700083  0.55438835  0.70050741    -0.30900
H1347       H  0.65498742  0.51589881  0.72403278     0.10000
C1348       C  0.61733679  0.47600075  0.71170347     0.03200
C1349       C  0.61795957  0.45676930  0.72650031    -0.13200
C1350       C  0.62263265  0.45360790  0.76479961    -0.08900
C1351       C  0.62644698  0.47031880  0.78865270     0.06700
C1352       C  0.62601086  0.48939268  0.77375083    -0.14000
S1353       S  0.61232695  0.47939997  0.66196445    -0.30900
H1354       H  0.61532458  0.44412489  0.70795885     0.10900
S1355       S  0.63114601  0.46851345  0.83880153    -0.28000
H1356       H  0.62898439  0.50202043  0.79227544     0.08200
H1357       H  0.65956527  0.57359893  0.70868045     0.26600
H1358       H  0.60836280  0.45939725  0.65292532     0.21400
H1359       H  0.61588416  0.45359329  0.84499823     0.26700
H1360       H  0.58182594  0.50024126  0.75147902     0.15500
C1361       C  0.47395612  0.64583569  0.21686550    -0.11700
C1362       C  0.48121203  0.62897093  0.19704405     0.14800
C1363       C  0.46657294  0.61404794  0.18678017     0.01700
C1364       C  0.44499585  0.61654643  0.19614055    -0.16100
C1365       C  0.43769615  0.63371808  0.21532914    -0.10900
C1366       C  0.45257909  0.64826519  0.22648350     0.08400
C1367       C  0.50433083  0.62738959  0.18966214     0.09400
S1368       S  0.47432413  0.59171896  0.16147830    -0.25200
H1369       H  0.43377929  0.60522088  0.18761463     0.19700
S1370       S  0.44561887  0.66972846  0.25507927    -0.30900
H1371       H  0.48521653  0.65705528  0.22575364     0.10000
C1372       C  0.51499533  0.64090906  0.16580389     0.03200
C1373       C  0.53715524  0.64139766  0.16467524    -0.13200
C1374       C  0.54898649  0.62871112  0.18700452    -0.08900
C1375       C  0.53827719  0.61469262  0.20998835     0.06700
C1376       C  0.51607933  0.61407284  0.21074877    -0.14000
S1377       S  0.50035893  0.65784906  0.13733225    -0.30900
H1378       H  0.54537620  0.65199837  0.14682853     0.10900
S1379       S  0.55176659  0.59827779  0.24111814    -0.28000
H1380       H  0.50788012  0.60390142  0.22956536     0.08200
H1381       H  0.43104325  0.65957942  0.27861717     0.26600
H1382       H  0.51798155  0.66756421  0.12087780     0.21400
H1383       H  0.56787873  0.61165979  0.25109101     0.26700
H1384       H  0.49245589  0.59959154  0.14326544     0.15500
C1385       C  0.63438935  0.61199600  0.85339826    -0.11700
C1386       C  0.62082409  0.62332205  0.87720096     0.14800
C1387       C  0.60688339  0.63682143  0.86086001     0.01700
C1388       C  0.60709087  0.63899808  0.82148521    -0.16100
C1389       C  0.62054401  0.62765512  0.79754007    -0.10900
C1390       C  0.63441186  0.61400303  0.81381817     0.08400
C1391       C  0.62214342  0.62155369  0.91898222     0.09400
S1392       S  0.58820182  0.65150075  0.88860805    -0.25200
H1393       H  0.59622737  0.64935952  0.80931537     0.19700
S1394       S  0.65315868  0.59946510  0.78601411    -0.30900
H1395       H  0.64534878  0.60182388  0.86583802     0.10000
C1396       C  0.61639002  0.60397675  0.93758775     0.03200
C1397       C  0.61682151  0.60340518  0.97733974    -0.13200
C1398       C  0.62305152  0.61999384  0.99910650    -0.08900
C1399       C  0.62948084  0.63740986  0.98014265     0.06700
C1400       C  0.62880468  0.63800665  0.94047602    -0.14000
S1401       S  0.60750615  0.58251746  0.91106218    -0.30900
H1402       H  0.61182532  0.59004120  0.99160373     0.10900
S1403       S  0.63945632  0.65909869  0.00441300    -0.28000
H1404       H  0.63362248  0.65141422  0.92611181     0.08200
H1405       H  0.65756760  0.61411586  0.75899868     0.26600
H1406       H  0.60919355  0.56900239  0.94078513     0.21400
H1407       H  0.65097209  0.64849793  0.03088838     0.26700
H1408       H  0.58464726  0.63751887  0.91722230     0.15500
C1409       C  0.61617443  0.60862395  0.43617377    -0.11700
C1410       C  0.62372991  0.62584305  0.41876966     0.14800
C1411       C  0.63158679  0.64147425  0.44167627     0.01700
C1412       C  0.63161824  0.63955967  0.48133579    -0.16100
C1413       C  0.62429423  0.62217650  0.49878373    -0.10900
C1414       C  0.61615686  0.60669132  0.47567749     0.08400
C1415       C  0.62164405  0.62751794  0.37702234     0.09400
S1416       S  0.64210648  0.66403152  0.42193030    -0.25200
H1417       H  0.63796030  0.65151280  0.49860390     0.19700
S1418       S  0.60438000  0.58451794  0.49482910    -0.30900
H1419       H  0.60966664  0.59678035  0.41882107     0.10000
C1420       C  0.63396959  0.61600992  0.35118481     0.03200
C1421       C  0.63084845  0.61759425  0.31197668    -0.13200
C1422       C  0.61550463  0.63035410  0.29791943    -0.08900
C1423       C  0.60277839  0.64146184  0.32413866     0.06700
C1424       C  0.60619639  0.64011143  0.36315435    -0.14000
S1425       S  0.65425695  0.59987660  0.36802171    -0.30900
H1426       H  0.64077730  0.60922002  0.29213274     0.10900
S1427       S  0.58126088  0.65692507  0.31005468    -0.28000
H1428       H  0.59635539  0.64859838  0.38302564     0.08200
H1429       H  0.59466189  0.59408912  0.52643321     0.26600
H1430       H  0.65864442  0.59026410  0.33297697     0.21400
H1431       H  0.57467533  0.64426097  0.28048240     0.26700
H1432       H  0.64947637  0.65554480  0.38738535     0.15500
C1433       C  0.61257312  0.52870720  0.24755076    -0.11700
C1434       C  0.61630872  0.51219493  0.22362369     0.14800
C1435       C  0.62039594  0.51522433  0.18455035     0.01700
C1436       C  0.62106098  0.53451978  0.17052844    -0.16100
C1437       C  0.61776860  0.55120943  0.19441354    -0.10900
C1438       C  0.61333977  0.54806992  0.23355645     0.08400
C1439       C  0.61639281  0.49207873  0.24030055     0.09400
S1440       S  0.62460523  0.49513395  0.15083673    -0.25200
H1441       H  0.62416886  0.53648327  0.14041403     0.19700
S1442       S  0.60951486  0.56802181  0.26750505    -0.30900
H1443       H  0.60945884  0.52649545  0.27759419     0.10000
C1444       C  0.63437849  0.48490279  0.25845341     0.03200
C1445       C  0.63406767  0.46574280  0.27341391    -0.13200
C1446       C  0.61624874  0.45326731  0.27013024    -0.08900
C1447       C  0.59817108  0.46061955  0.25197247     0.06700
C1448       C  0.59851612  0.47979809  0.23712510    -0.14000
S1449       S  0.65808884  0.49988847  0.26107066    -0.30900
H1450       H  0.64799697  0.46027213  0.28705531     0.10900
S1451       S  0.57388576  0.44667948  0.24808017    -0.28000
H1452       H  0.58465238  0.48527947  0.22323152     0.08200
H1453       H  0.62696129  0.57897577  0.25365194     0.26600
H1454       H  0.67055088  0.48596561  0.27944934     0.21400
H1455       H  0.57471414  0.43857768  0.28456131     0.26700
H1456       H  0.63337719  0.48174099  0.17604640     0.15500
C1457       C  0.97122397  0.63492147  0.45969634    -0.11700
C1458       C  0.97968878  0.62115649  0.48437579     0.14800
C1459       C  0.96606855  0.60747449  0.50259564     0.01700
C1460       C  0.94418585  0.60908065  0.49877862    -0.16100
C1461       C  0.93554843  0.62359756  0.47576362    -0.10900
C1462       C  0.94941072  0.63582893  0.45420189     0.08400
C1463       C  0.00224724  0.62284505  0.49422854     0.09400
S1464       S  0.97574783  0.58792726  0.53164180    -0.25200
H1465       H  0.93384306  0.59925818  0.51476834     0.19700
S1466       S  0.94037851  0.65253536  0.41870411    -0.30900
H1467       H  0.98165626  0.64520527  0.44502396     0.10000
C1468       C  0.01880656  0.61936497  0.46743028     0.03200
C1469       C  0.03988345  0.62118748  0.47882010    -0.13200
C1470       C  0.04463749  0.62671434  0.51629612    -0.08900
C1471       C  0.02791622  0.62982691  0.54316768     0.06700
C1472       C  0.00701887  0.62817349  0.53168352    -0.14000
S1473       S  0.01315112  0.61234859  0.41900553    -0.30900
H1474       H  0.05269706  0.61870740  0.45834152     0.10900
S1475       S  0.03204813  0.63515248  0.59286200    -0.28000
H1476       H  0.99428043  0.63079654  0.55231478     0.08200
H1477       H  0.92356025  0.64029267  0.40699341     0.26600
H1478       H  0.03419018  0.61296073  0.40501095     0.21400
H1479       H  0.04946994  0.62243574  0.59569201     0.26700
H1480       H  0.99499445  0.58548083  0.51118381     0.15500
C1481       C  0.76416960  0.60987948  0.55016621    -0.11700
C1482       C  0.75690995  0.62436421  0.57631510     0.14800
C1483       C  0.77177109  0.63674999  0.59441809     0.01700
C1484       C  0.79345819  0.63374634  0.58761622    -0.16100
C1485       C  0.80083400  0.61869422  0.56274396    -0.10900
C1486       C  0.78589105  0.60706177  0.54285165     0.08400
C1487       C  0.73396153  0.62505800  0.58646867     0.09400
S1488       S  0.76406133  0.65617311  0.62751437    -0.25200
H1489       H  0.80469312  0.64286941  0.60288121     0.19700
S1490       S  0.79345744  0.58860153  0.50758438    -0.30900
H1491       H  0.75281231  0.60050762  0.53576299     0.10000
C1492       C  0.71924047  0.63419313  0.56305742     0.03200
C1493       C  0.69753575  0.63335727  0.57282900    -0.13200
C1494       C  0.69022548  0.62328857  0.60525425    -0.08900
C1495       C  0.70511741  0.61490601  0.62948385     0.06700
C1496       C  0.72675540  0.61582117  0.61979240    -0.14000
S1497       S  0.72810242  0.64659572  0.52047312    -0.30900
H1498       H  0.68611033  0.63975029  0.55421875     0.10900
S1499       S  0.69748864  0.60291831  0.67312473    -0.28000
H1500       H  0.73808176  0.60903755  0.63811680     0.08200
H1501       H  0.81169960  0.59867521  0.49447351     0.26600
H1502       H  0.70793617  0.65209564  0.50838368     0.21400
H1503       H  0.67883485  0.61381704  0.67985295     0.26700
H1504       H  0.74482671  0.66054418  0.61033208     0.15500
C1505       C  0.96616450  0.64640436  0.97919555    -0.11700
C1506       C  0.97478002  0.62923813  0.99403621     0.14800
C1507       C  0.96116507  0.61379098  0.00586512     0.01700
C1508       C  0.93920334  0.61610933  0.00384897    -0.16100
C1509       C  0.93043742  0.63357180  0.99014448    -0.10900
C1510       C  0.94419510  0.64874707  0.97685006     0.08400
C1511       C  0.99772068  0.62906335  0.00148658     0.09400
S1512       S  0.97088207  0.59103107  0.02473750    -0.25200
H1513       H  0.92887355  0.60431476  0.01371288     0.19700
S1514       S  0.93416776  0.67093267  0.95571743    -0.30900
H1515       H  0.97677062  0.65816195  0.97022141     0.10000
C1516       C  0.01310587  0.62533761  0.97262695     0.03200
C1517       C  0.03471781  0.62611543  0.98147369    -0.13200
C1518       C  0.04108461  0.63092809  0.01852086    -0.08900
C1519       C  0.02549426  0.63425661  0.04742766     0.06700
C1520       C  0.00405463  0.63334262  0.03850742    -0.14000
S1521       S  0.00511114  0.61956576  0.92479712    -0.30900
H1522       H  0.04666274  0.62348450  0.95941784     0.10900
S1523       S  0.03264227  0.63875559  0.09630564    -0.28000
H1524       H  0.99204246  0.63600776  0.06043411     0.08200
H1525       H  0.95379993  0.68035631  0.94924427     0.26600
H1526       H  0.02562439  0.61715159  0.90903764     0.21400
H1527       H  0.01210494  0.64246005  0.11091878     0.26700
H1528       H  0.99043497  0.59115846  0.00481086     0.15500
C1529       C  0.88759063  0.62910003  0.81105674    -0.11700
C1530       C  0.86830364  0.62553644  0.79314685     0.14800
C1531       C  0.84982868  0.62221221  0.81562411     0.01700
C1532       C  0.85091054  0.62327230  0.85530266    -0.16100
C1533       C  0.87010363  0.62728877  0.87323087    -0.10900
C1534       C  0.88874617  0.62975008  0.85073936     0.08400
C1535       C  0.86830245  0.62419092  0.75109610     0.09400
S1536       S  0.82437628  0.61680681  0.79558032    -0.25200
H1537       H  0.83656073  0.62127326  0.87234481     0.19700
S1538       S  0.91455171  0.63291004  0.87093363    -0.30900
H1539       H  0.90191175  0.63109265  0.79393424     0.10000
C1540       C  0.86071035  0.63957035  0.72862193     0.03200
C1541       C  0.86065573  0.63714826  0.68884649    -0.13200
C1542       C  0.86818213  0.61967793  0.67115002    -0.08900
C1543       C  0.87664132  0.60471279  0.69391057     0.06700
C1544       C  0.87638738  0.60705571  0.73343284    -0.14000
S1545       S  0.85104236  0.66219168  0.75054997    -0.30900
H1546       H  0.85421298  0.64865136  0.67155786     0.10900
S1547       S  0.88869169  0.58255059  0.67437420    -0.28000
H1548       H  0.88264423  0.59541837  0.75067402     0.08200
H1549       H  0.91034943  0.62108980  0.90277663     0.26600
H1550       H  0.84956311  0.67286870  0.71675454     0.21400
H1551       H  0.89759527  0.59170005  0.64208933     0.26700
H1552       H  0.83201719  0.60729785  0.76226573     0.15500
C1553       C  0.85469778  0.63796667  0.31283183    -0.11700
C1554       C  0.86492962  0.62257949  0.29284851     0.14800
C1555       C  0.87464588  0.60734961  0.31314012     0.01700
C1556       C  0.87431744  0.60815987  0.35295009    -0.16100
C1557       C  0.86460813  0.62390452  0.37299598    -0.10900
C1558       C  0.85408165  0.63860856  0.35251468     0.08400
C1559       C  0.86400172  0.62230571  0.25096256     0.09400
S1560       S  0.88786240  0.58659897  0.29020710    -0.25200
H1561       H  0.88246691  0.59685040  0.36831134     0.19700
S1562       S  0.83888342  0.65816074  0.37528460    -0.30900
H1563       H  0.84670393  0.64933367  0.29733724     0.10000
C1564       C  0.84954035  0.60998887  0.23205453     0.03200
C1565       C  0.84948086  0.60967493  0.19231291    -0.13200
C1566       C  0.86352049  0.62153563  0.17075075    -0.08900
C1567       C  0.87773028  0.63425395  0.19005150     0.06700
C1568       C  0.87762640  0.63464033  0.22989864    -0.14000
S1569       S  0.83097945  0.59482596  0.25863684    -0.30900
H1570       H  0.83828249  0.60015685  0.17793023     0.10900
S1571       S  0.89699293  0.64960573  0.16587897    -0.28000
H1572       H  0.88864541  0.64422848  0.24463563     0.08200
H1573       H  0.83192500  0.64674049  0.40627913     0.26600
H1574       H  0.81961481  0.58765969  0.22736334     0.21400
H1575       H  0.90280276  0.63500959  0.13870169     0.26700
H1576       H  0.89208898  0.59538784  0.25495804     0.15500
C1577       C  0.76008614  0.61162905  0.05722165    -0.11700
C1578       C  0.75261952  0.62574636  0.08376583     0.14800
C1579       C  0.76714033  0.63881360  0.10120143     0.01700
C1580       C  0.78880231  0.63715508  0.09206942    -0.16100
C1581       C  0.79641321  0.62251938  0.06648534    -0.10900
C1582       C  0.78167879  0.60992763  0.04824180     0.08400
C1583       C  0.72973176  0.62557562  0.09355825     0.09400
S1584       S  0.75955062  0.65718557  0.13678085    -0.25200
H1585       H  0.79991284  0.64677940  0.10650151     0.19700
S1586       S  0.78924417  0.59142072  0.01313608    -0.30900
H1587       H  0.74895042  0.60169113  0.04361449     0.10000
C1588       C  0.71536755  0.63754490  0.07456092     0.03200
C1589       C  0.69360202  0.63570049  0.08278154    -0.13200
C1590       C  0.68589486  0.62188585  0.10922730    -0.08900
C1591       C  0.70048818  0.61055598  0.12940012     0.06700
C1592       C  0.72217999  0.61239205  0.12108974    -0.14000
S1593       S  0.72471872  0.65457419  0.03884579    -0.30900
H1594       H  0.68249928  0.64436167  0.06720640     0.10900
S1595       S  0.69248871  0.59368207  0.16627389    -0.28000
H1596       H  0.73329102  0.60335563  0.13598661     0.08200
H1597       H  0.80632769  0.60230189  0.99763820     0.26600
H1598       H  0.70517082  0.66385934  0.03344453     0.21400
H1599       H  0.67446884  0.60439110  0.17846110     0.26700
H1600       H  0.73748234  0.65535680  0.13504954     0.15500
C1601       C  0.97099988  0.39578295  0.94125441    -0.11700
C1602       C  0.98433098  0.37994612  0.93114751     0.14800
C1603       C  0.97537500  0.36236196  0.91633638     0.01700
C1604       C  0.95336596  0.36063794  0.91359707    -0.16100
C1605       C  0.93981616  0.37626916  0.92451297    -0.10900
C1606       C  0.94893560  0.39415082  0.93831451     0.08400
C1607       C  0.00722808  0.38138859  0.93949714     0.09400
S1608       S  0.99122191  0.34152274  0.90074212    -0.25200
H1609       H  0.94676533  0.34691064  0.90266786     0.19700
S1610       S  0.93342761  0.41494239  0.95518649    -0.30900
H1611       H  0.97779607  0.40925127  0.95296054     0.10000
C1612       C  0.02150490  0.39239774  0.91672794     0.03200
C1613       C  0.04326321  0.39207359  0.92434301    -0.13200
C1614       C  0.05101570  0.38098537  0.95439783    -0.08900
C1615       C  0.03642099  0.37095357  0.97850223     0.06700
C1616       C  0.01483543  0.37101756  0.97044665    -0.14000
S1617       S  0.01211854  0.40600979  0.87686565    -0.30900
H1618       H  0.05436449  0.39985676  0.90596973     0.10900
S1619       S  0.04421451  0.35822605  0.02053559    -0.28000
H1620       H  0.00381523  0.36291121  0.98850323     0.08200
H1621       H  0.91886725  0.40339615  0.97618542     0.26600
H1622       H  0.03207402  0.41255246  0.86347363     0.21400
H1623       H  0.06090756  0.37126226  0.02927052     0.26700
H1624       H  0.00898496  0.35264638  0.88888732     0.15500
C1625       C  0.76897682  0.36405851  0.83480925    -0.11700
C1626       C  0.75722254  0.37937445  0.85232813     0.14800
C1627       C  0.76793535  0.39441698  0.87256421     0.01700
C1628       C  0.79003818  0.39490188  0.87177632    -0.16100
C1629       C  0.80199768  0.38028315  0.85242259    -0.10900
C1630       C  0.79122043  0.36429884  0.83462681     0.08400
C1631       C  0.73401901  0.38019739  0.84707052     0.09400
S1632       S  0.75431545  0.41365893  0.89938819    -0.25200
H1633       H  0.79801807  0.40692328  0.88644708     0.19700
S1634       S  0.80463278  0.34433424  0.80961365    -0.30900
H1635       H  0.76078480  0.35229605  0.81977272     0.10000
C1636       C  0.72497640  0.39514967  0.82529010     0.03200
C1637       C  0.70290472  0.39685074  0.82431503    -0.13200
C1638       C  0.68955710  0.38364533  0.84394708    -0.08900
C1639       C  0.69867900  0.36819574  0.86465460     0.06700
C1640       C  0.72077248  0.36653418  0.86562763    -0.14000
S1641       S  0.74151353  0.41210811  0.79858920    -0.30900
H1642       H  0.69597683  0.40859615  0.80825864     0.10900
S1643       S  0.68317169  0.35097024  0.89246771    -0.28000
H1644       H  0.72770427  0.35503485  0.88234179     0.08200
H1645       H  0.82027275  0.35623997  0.79234928     0.26600
H1646       H  0.72526812  0.42001422  0.77690457     0.21400
H1647       H  0.66848204  0.36505675  0.90626211     0.26700
H1648       H  0.73606947  0.40247286  0.90816014     0.15500
C1649       C  0.87322019  0.48797369  0.89977190    -0.11700
C1650       C  0.87386197  0.49324772  0.93833117     0.14800
C1651       C  0.87532732  0.47834817  0.96575936     0.01700
C1652       C  0.87503551  0.45845102  0.95416906    -0.16100
C1653       C  0.87333158  0.45312370  0.91569169    -0.10900
C1654       C  0.87317275  0.46812520  0.88810848     0.08400
C1655       C  0.87079408  0.51421047  0.94921777     0.09400
S1656       S  0.87664652  0.48377198  0.01597687    -0.25200
H1657       H  0.87535403  0.44706147  0.97544596     0.19700
S1658       S  0.87294080  0.46298709  0.83764761    -0.30900
H1659       H  0.87231861  0.49941947  0.87868168     0.10000
C1660       C  0.88740504  0.52812391  0.94681035     0.03200
C1661       C  0.88373019  0.54771888  0.95876169    -0.13200
C1662       C  0.86369777  0.55367628  0.97277705    -0.08900
C1663       C  0.84674002  0.53988960  0.97246769     0.06700
C1664       C  0.85057166  0.52028576  0.96137703    -0.14000
S1665       S  0.91351073  0.52068666  0.93049665    -0.30900
H1666       H  0.89675045  0.55820545  0.95878653     0.10900
S1667       S  0.81976460  0.54644589  0.98440015    -0.28000
H1668       H  0.83763940  0.50967289  0.96187401     0.08200
H1669       H  0.88490030  0.44554189  0.83896511     0.26600
H1670       H  0.92234782  0.53982105  0.92915340     0.21400
H1671       H  0.82132482  0.56539342  0.96861854     0.26700
H1672       H  0.88677950  0.50223083  0.01243910     0.15500
C1673       C  0.02597969  0.40194463  0.44479385    -0.11700
C1674       C  0.01339374  0.38532390  0.45280979     0.14800
C1675       C  0.02269102  0.36850762  0.46826468     0.01700
C1676       C  0.04445283  0.36831523  0.47379761    -0.16100
C1677       C  0.05758451  0.38445091  0.46385949    -0.10900
C1678       C  0.04796805  0.40181368  0.45020896     0.08400
C1679       C  0.99132242  0.38484002  0.44005992     0.09400
S1680       S  0.00806416  0.34612748  0.47862390    -0.25200
H1681       H  0.05122694  0.35497718  0.48489228     0.19700
S1682       S  0.06320097  0.42347105  0.43701763    -0.30900
H1683       H  0.01862905  0.41470529  0.43255339     0.10000
C1684       C  0.97424481  0.39050771  0.46413094     0.03200
C1685       C  0.95349116  0.38830563  0.45130177    -0.13200
C1686       C  0.94951795  0.38059928  0.41475426    -0.08900
C1687       C  0.96690205  0.37577628  0.39019175     0.06700
C1688       C  0.98750030  0.37769614  0.40332577    -0.14000
S1689       S  0.97891202  0.39978631  0.51158850    -0.30900
H1690       H  0.94031477  0.39221408  0.47010946     0.10900
S1691       S  0.96410907  0.36773698  0.34144556    -0.28000
H1692       H  0.00073874  0.37361315  0.38470522     0.08200
H1693       H  0.04596526  0.43633037  0.43342019     0.26600
H1694       H  0.95762068  0.39958607  0.52427174     0.21400
H1695       H  0.94791278  0.38121167  0.33385730     0.26700
H1696       H  0.98838731  0.35498572  0.48646030     0.15500
C1697       C  0.88611346  0.38452369  0.59343733    -0.11700
C1698       C  0.87106715  0.37305168  0.61331253     0.08400
C1699       C  0.85523129  0.36292074  0.59306870     0.01700
C1700       C  0.85442319  0.36482464  0.55375660    -0.16100
C1701       C  0.86904323  0.37668907  0.53373771    -0.10900
C1702       C  0.88519999  0.38658876  0.55380708     0.08400
C1703       C  0.87016279  0.37427563  0.65529743     0.09400
S1704       S  0.83494364  0.34809629  0.61595459    -0.25200
H1705       H  0.84198257  0.35715673  0.53865135     0.19700
S1706       S  0.90328950  0.40337371  0.52998365    -0.30900
H1707       H  0.89788387  0.39263987  0.60934242     0.10000
C1708       C  0.88476094  0.36450602  0.67800087     0.03200
C1709       C  0.88267901  0.36602682  0.71782823    -0.13200
C1710       C  0.86632723  0.37723457  0.73515234    -0.08900
C1711       C  0.85142196  0.38651913  0.71201048     0.06700
C1712       C  0.85370926  0.38516442  0.67258493    -0.14000
S1713       S  0.90584369  0.35005737  0.65621584    -0.30900
H1714       H  0.89410221  0.35894705  0.73548868     0.10900
S1715       S  0.82871727  0.39988869  0.73075158    -0.28000
H1716       H  0.84232026  0.39243785  0.65506733     0.08200
H1717       H  0.91474195  0.40910756  0.56216823     0.26600
H1718       H  0.91475628  0.34381552  0.69020206     0.21400
H1719       H  0.82527533  0.38772769  0.76229079     0.26700
H1720       H  0.84709064  0.34250467  0.64689155     0.15500
C1721       C  0.88189574  0.39077833  0.17593232    -0.11700
C1722       C  0.86753000  0.37886970  0.15617075     0.14800
C1723       C  0.85406133  0.36584994  0.17663264     0.01700
C1724       C  0.85570510  0.36470384  0.21625893    -0.16100
C1725       C  0.87089626  0.37592403  0.23575936    -0.10900
C1726       C  0.88358123  0.38961885  0.21532341     0.08400
C1727       C  0.86894411  0.37888871  0.11413969     0.09400
S1728       S  0.83489848  0.35000762  0.15391760    -0.25200
H1729       H  0.84577958  0.35429920  0.23169757     0.19700
S1730       S  0.90212504  0.40619750  0.23781358    -0.30900
H1731       H  0.89216383  0.40085363  0.16036224     0.10000
C1732       C  0.85549513  0.39024421  0.09181145     0.03200
C1733       C  0.85809133  0.38968480  0.05189804    -0.13200
C1734       C  0.87396631  0.37801321  0.03422557    -0.08900
C1735       C  0.88810200  0.36761854  0.05716598     0.06700
C1736       C  0.88521871  0.36792287  0.09654331    -0.14000
S1737       S  0.83499837  0.40516563  0.11419625    -0.30900
H1738       H  0.84735917  0.39776940  0.03443937     0.10900
S1739       S  0.91060887  0.35411370  0.03804090    -0.28000
H1740       H  0.89595792  0.35968042  0.11379765     0.08200
H1741       H  0.89007154  0.40878329  0.27164256     0.26600
H1742       H  0.82727980  0.41311522  0.08058622     0.21400
H1743       H  0.91494862  0.36732834  0.00837923     0.26700
H1744       H  0.84618384  0.34726174  0.11938982     0.15500
C1745       C  0.75358466  0.37289442  0.37875949    -0.11700
C1746       C  0.74746045  0.36707717  0.34228386     0.14800
C1747       C  0.76307594  0.36235529  0.31430384     0.01700
C1748       C  0.78450722  0.36446235  0.32300950    -0.16100
C1749       C  0.79061151  0.37089154  0.35932776    -0.10900
C1750       C  0.77485570  0.37442219  0.38783479     0.08400
C1751       C  0.72468874  0.36797807  0.33422539     0.09400
S1752       S  0.75663911  0.35379044  0.26718733    -0.25200
H1753       H  0.79645488  0.36142032  0.30111205     0.19700
S1754       S  0.78069430  0.38040736  0.43662120    -0.30900
H1755       H  0.74160733  0.37639088  0.40038061     0.10000
C1756       C  0.70994296  0.35579866  0.35339445     0.03200
C1757       C  0.68834035  0.36002386  0.35158695    -0.13200
C1758       C  0.68114804  0.37630619  0.33119822    -0.08900
C1759       C  0.69594720  0.38743113  0.30943449     0.06700
C1760       C  0.71753673  0.38328561  0.31157342    -0.14000
S1761       S  0.71872145  0.33530269  0.38121319    -0.30900
H1762       H  0.67710768  0.35113802  0.36766398     0.10900
S1763       S  0.68845479  0.40705370  0.27852997    -0.28000
H1764       H  0.72892487  0.39252191  0.29654341     0.08200
H1765       H  0.79780712  0.36724493  0.43827613     0.26600
H1766       H  0.69858890  0.32929436  0.39469856     0.21400
H1767       H  0.66975447  0.39767634  0.26656711     0.26700
H1768       H  0.73715867  0.34500529  0.27755875     0.15500
C1769       C  0.86722510  0.51921806  0.43118347    -0.11700
C1770       C  0.86868381  0.50420059  0.45822470     0.14800
C1771       C  0.87089695  0.50979943  0.49678819     0.01700
C1772       C  0.87032401  0.52986499  0.50765699    -0.16100
C1773       C  0.86811435  0.54497396  0.48101276    -0.10900
C1774       C  0.86681202  0.53943216  0.44209908     0.08400
C1775       C  0.86619233  0.48289455  0.44640224     0.09400
S1776       S  0.87397756  0.49195849  0.53378707    -0.25200
H1777       H  0.87163641  0.53373871  0.53751294     0.19700
S1778       S  0.86314899  0.55724342  0.40537489    -0.30900
H1779       H  0.86548777  0.51514009  0.40152002     0.10000
C1780       C  0.84742854  0.47229270  0.45492634     0.03200
C1781       C  0.84620071  0.45188237  0.44652593    -0.13200
C1782       C  0.86341306  0.44132691  0.42986975    -0.08900
C1783       C  0.88202930  0.45231159  0.42025811     0.06700
C1784       C  0.88317139  0.47275746  0.42868710    -0.14000
S1785       S  0.82500200  0.48476145  0.47714186    -0.30900
H1786       H  0.83174967  0.44404821  0.45397023     0.10900
S1787       S  0.90504998  0.44136312  0.39750065    -0.28000
H1788       H  0.89763757  0.48079390  0.42199251     0.08200
H1789       H  0.84947444  0.56950414  0.42718231     0.26600
H1790       H  0.81241377  0.46782209  0.48315603     0.21400
H1791       H  0.89335861  0.43186643  0.36888947     0.26700
H1792       H  0.88445438  0.47762034  0.51103184     0.15500
C1793       C  0.13385285  0.23427035  0.85646402    -0.11700
C1794       C  0.12672261  0.24637478  0.88703527     0.14800
C1795       C  0.11877013  0.23732591  0.92027267     0.01700
C1796       C  0.11771809  0.21671444  0.92210417    -0.16100
C1797       C  0.12457039  0.20438588  0.89164830    -0.10900
C1798       C  0.13274366  0.21343593  0.85828485     0.08400
C1799       C  0.12646317  0.26833483  0.88353350     0.09400
S1800       S  0.10918840  0.25126443  0.96128523    -0.25200
H1801       H  0.11157296  0.21023302  0.94810126     0.19700
S1802       S  0.14090882  0.19941054  0.81656854    -0.30900
H1803       H  0.13977675  0.24110015  0.83066369     0.10000
C1804       C  0.14417061  0.28013419  0.89278808     0.03200
C1805       C  0.14213016  0.30087602  0.89536416    -0.13200
C1806       C  0.12257170  0.31007986  0.88978742    -0.08900
C1807       C  0.10512611  0.29823873  0.87883668     0.06700
C1808       C  0.10726091  0.27761474  0.87582564    -0.14000
S1809       S  0.16875960  0.26861247  0.90488989    -0.30900
H1810       H  0.15543127  0.30985150  0.90423970     0.10900
S1811       S  0.07954520  0.30851251  0.86930356    -0.28000
H1812       H  0.09358451  0.26863363  0.86884054     0.08200
H1813       H  0.12396410  0.18584664  0.81882121     0.26600
H1814       H  0.17950833  0.28609744  0.91521391     0.21400
H1815       H  0.08719866  0.32700866  0.85725623     0.26700
H1816       H  0.12369502  0.26699065  0.95796372     0.15500
C1817       C  0.13867444  0.28044571  0.36576143    -0.11700
C1818       C  0.12086505  0.26888676  0.37583972     0.14800
C1819       C  0.10206617  0.27869366  0.38755579     0.01700
C1820       C  0.10197942  0.29929642  0.39229368    -0.16100
C1821       C  0.12012085  0.31091858  0.38486791    -0.10900
C1822       C  0.13846713  0.30133136  0.36971529     0.08400
C1823       C  0.12285850  0.24689883  0.37959725     0.09400
S1824       S  0.07774718  0.26562109  0.39843491    -0.25200
H1825       H  0.08758511  0.30629293  0.40296661     0.19700
S1826       S  0.16216012  0.31523589  0.35790319    -0.30900
H1827       H  0.15306502  0.27299250  0.35654466     0.10000
C1828       C  0.12617493  0.23376920  0.34831612     0.03200
C1829       C  0.12600466  0.21306782  0.35404136    -0.13200
C1830       C  0.12250036  0.20522777  0.39047842    -0.08900
C1831       C  0.12051390  0.21857068  0.42183609     0.06700
C1832       C  0.12052608  0.23899024  0.41603212    -0.14000
S1833       S  0.12937470  0.24330535  0.30096101    -0.30900
H1834       H  0.12770251  0.20298208  0.32996869     0.10900
S1835       S  0.11824869  0.21053019  0.47039035    -0.28000
H1836       H  0.11851343  0.24891094  0.44034668     0.08200
H1837       H  0.17522125  0.29893514  0.34909196     0.26600
H1838       H  0.13125822  0.22487744  0.28207447     0.21400
H1839       H  0.13202252  0.19438004  0.46518980     0.26700
H1840       H  0.08155667  0.24976788  0.37285655     0.15500
C1841       C  0.14439783  0.12164296  0.70148846    -0.11700
C1842       C  0.12683811  0.13116791  0.68680883     0.14800
C1843       C  0.11217565  0.14062657  0.71191807     0.01700
C1844       C  0.11510719  0.13986522  0.75117098    -0.16100
C1845       C  0.13226365  0.12965251  0.76600653    -0.10900
C1846       C  0.14748735  0.12112222  0.74065608     0.08400
C1847       C  0.12487454  0.13188867  0.64512545     0.09400
S1848       S  0.08936671  0.15373477  0.69572748    -0.25200
H1849       H  0.10341996  0.14659439  0.77028805     0.19700
S1850       S  0.17166874  0.11021575  0.75641548    -0.30900
H1851       H  0.15602557  0.11494635  0.68220607     0.10000
C1852       C  0.13060679  0.14897240  0.62508230     0.03200
C1853       C  0.12759057  0.14946682  0.58585843    -0.13200
C1854       C  0.11890836  0.13320759  0.56594633    -0.08900
C1855       C  0.11345359  0.11593142  0.58629661     0.06700
C1856       C  0.11679127  0.11539063  0.62549768    -0.14000
S1857       S  0.14200934  0.17006703  0.64948078    -0.30900
H1858       H  0.13218425  0.16262339  0.57054734     0.10900
S1859       S  0.10114191  0.09456927  0.56467706    -0.28000
H1860       H  0.11238379  0.10225199  0.64110293     0.08200
H1861       H  0.17392463  0.12308868  0.78790340     0.26600
H1862       H  0.14437459  0.18219949  0.61757617     0.21400
H1863       H  0.08720273  0.10563284  0.54292770     0.26700
H1864       H  0.08647212  0.14239777  0.66242470     0.15500
C1865       C  0.12963441  0.14313986  0.20724103    -0.11700
C1866       C  0.12096694  0.12688167  0.18751274     0.14800
C1867       C  0.11416280  0.11021725  0.20815741     0.01700
C1868       C  0.11699817  0.10979426  0.24741825    -0.16100
C1869       C  0.12570431  0.12600975  0.26731142    -0.10900
C1870       C  0.13190376  0.14296925  0.24675204     0.08400
C1871       C  0.11978928  0.12750648  0.14540201     0.09400
S1872       S  0.10104783  0.08933711  0.18629200    -0.25200
H1873       H  0.11174174  0.09682972  0.26277728     0.19700
S1874       S  0.14370733  0.16443349  0.26878067    -0.30900
H1875       H  0.13498800  0.15597287  0.19158752     0.10000
C1876       C  0.10736411  0.14167654  0.12755628     0.03200
C1877       C  0.10727981  0.14224924  0.08781847    -0.13200
C1878       C  0.11938075  0.12902207  0.06499354    -0.08900
C1879       C  0.13155551  0.11455609  0.08300025     0.06700
C1880       C  0.13151998  0.11390796  0.12287460    -0.14000
S1881       S  0.09113757  0.15879382  0.15526524    -0.30900
H1882       H  0.09764624  0.15316962  0.07433782     0.10900
S1883       S  0.14824949  0.09724007  0.05711201    -0.28000
H1884       H  0.14115664  0.10302525  0.13652834     0.08200
H1885       H  0.15633249  0.15327700  0.29262213     0.26600
H1886       H  0.08219582  0.16850697  0.12453519     0.21400
H1887       H  0.15595695  0.11112371  0.03079084     0.26700
H1888       H  0.09088626  0.10029070  0.15849327     0.15500
C1889       C  0.36703616  0.22994878  0.89330788    -0.11700
C1890       C  0.37280914  0.24243028  0.86317487     0.14800
C1891       C  0.37994125  0.23377184  0.82843019     0.01700
C1892       C  0.38191389  0.21320041  0.82501895    -0.16100
C1893       C  0.37635258  0.20054902  0.85509340    -0.10900
C1894       C  0.36875238  0.20920400  0.88968579     0.08400
C1895       C  0.37279858  0.26438718  0.86882608     0.09400
S1896       S  0.38664488  0.24819017  0.78709833    -0.25200
H1897       H  0.38753527  0.20697701  0.79807392     0.19700
S1898       S  0.36214481  0.19480825  0.93083217    -0.30900
H1899       H  0.36172784  0.23644510  0.92019664     0.10000
C1900       C  0.35394619  0.27553278  0.86986807     0.03200
C1901       C  0.35503411  0.29635514  0.86786704    -0.13200
C1902       C  0.37464375  0.30625126  0.86501359    -0.08900
C1903       C  0.39339878  0.29510181  0.86814945     0.06700
C1904       C  0.39229592  0.27441715  0.86944870    -0.14000
S1905       S  0.32854348  0.26319560  0.87028874    -0.30900
H1906       H  0.34061318  0.30478910  0.86566339     0.10900
S1907       S  0.41929079  0.30642803  0.86992290    -0.28000
H1908       H  0.40683478  0.26599671  0.86972016     0.08200
H1909       H  0.37903302  0.18149685  0.92558561     0.26600
H1910       H  0.31626808  0.28032274  0.87608907     0.21400
H1911       H  0.41227559  0.32430835  0.88680869     0.26700
H1912       H  0.37182270  0.26327090  0.79461868     0.15500
C1913       C  0.22960557  0.11625229  0.90008198    -0.11700
C1914       C  0.23919687  0.12764042  0.87144308     0.14800
C1915       C  0.22633259  0.13930019  0.84839011     0.01700
C1916       C  0.20423469  0.13883892  0.85386310    -0.16100
C1917       C  0.19462005  0.12668249  0.88137496    -0.10900
C1918       C  0.20757649  0.11582425  0.90553773     0.08400
C1919       C  0.26255368  0.12648758  0.86604703     0.09400
S1920       S  0.23697062  0.15461134  0.81092429    -0.25200
H1921       H  0.19442660  0.14719726  0.83512402     0.19700
S1922       S  0.19687402  0.10132789  0.94410626    -0.30900
H1923       H  0.23939582  0.10755948  0.91828489     0.10000
C1924       C  0.27623527  0.14107153  0.88084957     0.03200
C1925       C  0.29828865  0.13863916  0.87684852    -0.13200
C1926       C  0.30699602  0.12182900  0.85840655    -0.08900
C1927       C  0.29310567  0.10766172  0.84223341     0.06700
C1928       C  0.27116363  0.11000817  0.84671254    -0.14000
S1929       S  0.26561696  0.16229101  0.90640098    -0.30900
H1930       H  0.30878085  0.14947805  0.88950478     0.10900
S1931       S  0.30228860  0.08650843  0.81476915    -0.28000
H1932       H  0.26065304  0.09892047  0.83482658     0.08200
H1933       H  0.17901492  0.11329641  0.95125246     0.26600
H1934       H  0.28484056  0.17280437  0.90873806     0.21400
H1935       H  0.31993557  0.09623199  0.79838334     0.26700
H1936       H  0.25541017  0.14363135  0.80309895     0.15500
C1937       C  0.38914427  0.23496604  0.37332069    -0.11700
C1938       C  0.36891027  0.24270607  0.38085147     0.14800
C1939       C  0.35168820  0.22957457  0.38636387     0.01700
C1940       C  0.35465295  0.20920299  0.38057808    -0.16100
C1941       C  0.37460640  0.20156704  0.36987244    -0.10900
C1942       C  0.39225862  0.21459115  0.36867197     0.08400
C1943       C  0.36583140  0.26428967  0.37667960     0.09400
S1944       S  0.32539944  0.23806967  0.39890717    -0.25200
H1945       H  0.34103349  0.19941449  0.38239693     0.19700
S1946       S  0.41911001  0.20622689  0.36088810    -0.30900
H1947       H  0.40251019  0.24493755  0.36965398     0.10000
C1948       C  0.37460349  0.27839850  0.40186079     0.03200
C1949       C  0.37363459  0.29864514  0.39330393    -0.13200
C1950       C  0.36406785  0.30488699  0.36000604    -0.08900
C1951       C  0.35392511  0.29077965  0.33650405     0.06700
C1952       C  0.35516858  0.27071051  0.34474745    -0.14000
S1953       S  0.38737081  0.27053904  0.44430878    -0.30900
H1954       H  0.38132925  0.30949243  0.41134464     0.10900
S1955       S  0.33952731  0.29751159  0.29502784    -0.28000
H1956       H  0.34820467  0.25993543  0.32554457     0.08200
H1957       H  0.41604659  0.18815495  0.37958254     0.26600
H1958       H  0.39194454  0.28959088  0.45865336     0.21400
H1959       H  0.33321530  0.31621329  0.30915357     0.26700
H1960       H  0.33183442  0.25569084  0.41715362     0.15500
C1961       C  0.35784247  0.11715552  0.53950692    -0.11700
C1962       C  0.37683128  0.12479750  0.55346728     0.14800
C1963       C  0.39249343  0.13193398  0.52776583     0.01700
C1964       C  0.38851894  0.13179083  0.48881567    -0.16100
C1965       C  0.36959508  0.12391320  0.47476373    -0.10900
C1966       C  0.35402983  0.11659936  0.50057042     0.08400
C1967       C  0.37922523  0.12594193  0.59508666     0.09400
S1968       S  0.41800573  0.14086430  0.54269842    -0.25200
H1969       H  0.40068266  0.13705410  0.46916214     0.19700
S1970       S  0.32883667  0.10664630  0.48611040    -0.30900
H1971       H  0.34575450  0.11181652  0.55923705     0.10000
C1972       C  0.37799768  0.14413629  0.61481897     0.03200
C1973       C  0.37987476  0.14456581  0.65430487    -0.13200
C1974       C  0.38259951  0.12712766  0.67511257    -0.08900
C1975       C  0.38334299  0.10876370  0.65491801     0.06700
C1976       C  0.38163464  0.10845327  0.61529774    -0.14000
S1977       S  0.37287780  0.16674359  0.58998700    -0.30900
H1978       H  0.37864241  0.15868680  0.66907032     0.10900
S1979       S  0.38615324  0.08516240  0.67721446    -0.28000
H1980       H  0.38223218  0.09442372  0.59996511     0.08200
H1981       H  0.32759630  0.11705781  0.45214101     0.26600
H1982       H  0.37500407  0.17975593  0.62127885     0.21400
H1983       H  0.40346632  0.09120480  0.69877964     0.26700
H1984       H  0.41896831  0.12941808  0.57556743     0.15500
C1985       C  0.36177867  0.11716862  0.11807736    -0.11700
C1986       C  0.37593942  0.12834358  0.09570249     0.14800
C1987       C  0.39031256  0.14127709  0.11373540     0.01700
C1988       C  0.39011639  0.14281571  0.15349417    -0.16100
C1989       C  0.37609916  0.13150835  0.17613978    -0.10900
C1990       C  0.36154997  0.11872013  0.15789463     0.08400
C1991       C  0.37489635  0.12653149  0.05370089     0.09400
S1992       S  0.40903523  0.15650629  0.08780264    -0.25200
H1993       H  0.40132275  0.15274420  0.16691184     0.19700
S1994       S  0.34155917  0.10481509  0.18347051    -0.30900
H1995       H  0.35052296  0.10742084  0.10432219     0.10000
C1996       C  0.38713861  0.11246664  0.03314816     0.03200
C1997       C  0.38538134  0.11090518  0.99352036    -0.13200
C1998       C  0.37146632  0.12300896  0.97391784    -0.08900
C1999       C  0.35882631  0.13676597  0.99475532     0.06700
C2000       C  0.36091319  0.13858765  0.03426499    -0.14000
S2001       S  0.40521731  0.09672119  0.05745332    -0.30900
H2002       H  0.39496678  0.10027117  0.97761329     0.10900
S2003       S  0.33881394  0.15141206  0.97304852    -0.28000
H2004       H  0.35117117  0.14912560  0.05014820     0.08200
H2005       H  0.33713948  0.11985262  0.21057627     0.26600
H2006       H  0.41215666  0.08573376  0.02527814     0.21400
H2007       H  0.33327052  0.13710419  0.94553216     0.26700
H2008       H  0.41185563  0.14379155  0.05619654     0.15500
C2009       C  0.27174380  0.14363829  0.38818856    -0.11700
C2010       C  0.25872450  0.12934498  0.37116270     0.14800
C2011       C  0.26803371  0.11414737  0.34854799     0.01700
C2012       C  0.29004526  0.11236712  0.34669368    -0.16100
C2013       C  0.30320965  0.12602180  0.36535463    -0.10900
C2014       C  0.29385882  0.14221010  0.38549375     0.08400
C2015       C  0.23561230  0.12977231  0.37913491     0.09400
S2016       S  0.25266522  0.09650489  0.32157460    -0.25200
H2017       H  0.29698359  0.10024120  0.33025959     0.19700
S2018       S  0.30895722  0.16102490  0.40990845    -0.30900
H2019       H  0.26462298  0.15553812  0.40497900     0.10000
C2020       C  0.22546679  0.11452661  0.39956220     0.03200
C2021       C  0.20330215  0.11370805  0.40146601    -0.13200
C2022       C  0.19094659  0.12819988  0.38446329    -0.08900
C2023       C  0.20134862  0.14454325  0.36732842     0.06700
C2024       C  0.22349628  0.14495813  0.36429666    -0.14000
S2025       S  0.24076992  0.09610773  0.42323714    -0.30900
H2026       H  0.19552516  0.10156014  0.41592620     0.10900
S2027       S  0.18745462  0.16466096  0.34662842    -0.28000
H2028       H  0.23133439  0.15692033  0.34930941     0.08200
H2029       H  0.32394599  0.14809188  0.42438978     0.26600
H2030       H  0.22371222  0.08352813  0.43274663     0.21400
H2031       H  0.17756422  0.17029067  0.38135378     0.26700
H2032       H  0.23536994  0.10902891  0.31592888     0.15500
C2033       C  0.35470916  0.78482973  0.65188982    -0.11700
C2034       C  0.37270257  0.77288489  0.65490265     0.14800
C2035       C  0.39277942  0.78219041  0.65542764     0.01700
C2036       C  0.39443470  0.80285020  0.65260905    -0.16100
C2037       C  0.37646988  0.81508622  0.65032519    -0.10900
C2038       C  0.35627312  0.80561359  0.65012754     0.08400
C2039       C  0.37018091  0.75096468  0.65957336     0.09400
S2040       S  0.41702176  0.76858882  0.66040295    -0.25200
H2041       H  0.41011046  0.80941490  0.65310559     0.19700
S2042       S  0.33178293  0.81892247  0.64745426    -0.30900
H2043       H  0.33920295  0.77789038  0.65170204     0.10000
C2044       C  0.36269040  0.74309396  0.69426087     0.03200
C2045       C  0.36327091  0.72255293  0.69982953    -0.13200
C2046       C  0.37121624  0.70935653  0.67161664    -0.08900
C2047       C  0.37780442  0.71717547  0.63616777     0.06700
C2048       C  0.37711063  0.73778620  0.63049638    -0.14000
S2049       S  0.35358430  0.75930950  0.73251265    -0.30900
H2050       H  0.35803130  0.71671170  0.72694447     0.10900
S2051       S  0.38850377  0.70190004  0.59802987    -0.28000
H2052       H  0.38291179  0.74368801  0.60375829     0.08200
H2053       H  0.33486044  0.82906347  0.68215869     0.26600
H2054       H  0.35096900  0.74469800  0.76023233     0.21400
H2055       H  0.39965535  0.68915820  0.62143538     0.26700
H2056       H  0.40849873  0.75389677  0.68414689     0.15500
C2057       C  0.38903223  0.97765262  0.73058850    -0.11700
C2058       C  0.37320546  0.98756025  0.75227128     0.14800
C2059       C  0.35549271  0.97645034  0.76517425     0.01700
C2060       C  0.35369216  0.95631437  0.75534975    -0.16100
C2061       C  0.36941305  0.94621966  0.73355001    -0.10900
C2062       C  0.38745434  0.95729038  0.72137013     0.08400
C2063       C  0.37511642  0.00942861  0.76044990     0.09400
S2064       S  0.33479504  0.98686034  0.79545130    -0.25200
H2065       H  0.33995360  0.94831463  0.76606863     0.19700
S2066       S  0.40886141  0.94661137  0.69343606    -0.30900
H2067       H  0.40268412  0.98593258  0.72031968     0.10000
C2068       C  0.39164049  0.01751249  0.78238355     0.03200
C2069       C  0.39157131  0.03781931  0.79239660    -0.13200
C2070       C  0.37528480  0.05038320  0.78129641    -0.08900
C2071       C  0.35928779  0.04251179  0.75790996     0.06700
C2072       C  0.35940995  0.02228095  0.74775792    -0.14000
S2073       S  0.41201729  0.00178547  0.80022669    -0.30900
H2074       H  0.40375405  0.04378631  0.81049756     0.10900
S2075       S  0.33805085  0.05736006  0.74057381    -0.28000
H2076       H  0.34683130  0.01638110  0.73042486     0.08200
H2077       H  0.39539686  0.93676008  0.66799992     0.26600
H2078       H  0.42477510  0.01701173  0.81518044     0.21400
H2079       H  0.34840615  0.07575530  0.74343384     0.26700
H2080       H  0.34776397  0.00056404  0.81451688     0.15500
C2081       C  0.35114696  0.73588083  0.17073042    -0.11700
C2082       C  0.35931709  0.74164751  0.13519870     0.14800
C2083       C  0.36834987  0.72711169  0.11048174     0.01700
C2084       C  0.37061603  0.70763216  0.12308689    -0.16100
C2085       C  0.36374462  0.70228982  0.15978298    -0.10900
C2086       C  0.35288895  0.71641266  0.18291439     0.08400
C2087       C  0.36166641  0.76322928  0.12848739     0.09400
S2088       S  0.37776588  0.73271152  0.06310535    -0.25200
H2089       H  0.37848715  0.69680689  0.10471134     0.19700
S2090       S  0.34101824  0.71055917  0.22851804    -0.30900
H2091       H  0.34407409  0.74684267  0.18985569     0.10000
C2092       C  0.34417697  0.77616692  0.12886998     0.03200
C2093       C  0.34757967  0.79672764  0.13244618    -0.13200
C2094       C  0.36814096  0.80451261  0.13589474    -0.08900
C2095       C  0.38557957  0.79160104  0.13124623     0.06700
C2096       C  0.38217881  0.77121666  0.12802881    -0.14000
S2097       S  0.31755691  0.76642244  0.12666814    -0.30900
H2098       H  0.33417164  0.80655509  0.13562562     0.10900
S2099       S  0.41262773  0.80020700  0.13090808    -0.28000
H2100       H  0.39570212  0.76141463  0.12730258     0.08200
H2101       H  0.33549101  0.69098678  0.21856296     0.26600
H2102       H  0.30723970  0.78479191  0.12599322     0.21400
H2103       H  0.40804676  0.81848556  0.11456250     0.26700
H2104       H  0.36460165  0.74915569  0.05843542     0.15500
C2105       C  0.38421572  0.87026924  0.97478697    -0.11700
C2106       C  0.37145555  0.88303840  0.95438476     0.14800
C2107       C  0.35829203  0.89666864  0.97416762     0.01700
C2108       C  0.35795101  0.89708965  0.01379050    -0.16100
C2109       C  0.37075178  0.88443962  0.03452508    -0.10900
C2110       C  0.38421963  0.87098017  0.01461376     0.08400
C2111       C  0.37152306  0.88151079  0.91253626     0.09400
S2112       S  0.34133175  0.91374886  0.95060103    -0.25200
H2113       H  0.34746512  0.90741678  0.02861070     0.19700
S2114       S  0.40229381  0.85495474  0.03805650    -0.30900
H2115       H  0.39439522  0.85984788  0.95953001     0.10000
C2116       C  0.38751183  0.89046932  0.89008069     0.03200
C2117       C  0.38582955  0.89021149  0.85041340    -0.13200
C2118       C  0.36836925  0.88128017  0.83284384    -0.08900
C2119       C  0.35283970  0.87157508  0.85562024     0.06700
C2120       C  0.35450257  0.87198878  0.89511262    -0.14000
S2121       S  0.40928086  0.90331402  0.91211110    -0.30900
H2122       H  0.39767347  0.89772989  0.83312953     0.10900
S2123       S  0.33067708  0.85816867  0.83629661    -0.28000
H2124       H  0.34231847  0.86497949  0.91251929     0.08200
H2125       H  0.40783882  0.86897243  0.06613408     0.26600
H2126       H  0.41988272  0.90880997  0.87827481     0.21400
H2127       H  0.34189104  0.85093187  0.80400828     0.26700
H2128       H  0.35436754  0.91625359  0.91811732     0.15500
C2129       C  0.39375269  0.88713377  0.47259505    -0.11700
C2130       C  0.37655762  0.87829428  0.45437892     0.14800
C2131       C  0.35980783  0.87018198  0.47661011     0.01700
C2132       C  0.36089794  0.87071330  0.51640597    -0.16100
C2133       C  0.37857039  0.87884831  0.53464364    -0.10900
C2134       C  0.39476250  0.88783873  0.51224447     0.08400
C2135       C  0.37699802  0.87737425  0.41222352     0.09400
S2136       S  0.33695159  0.85846369  0.45602386    -0.25200
H2137       H  0.34828025  0.86394225  0.53315793     0.19700
S2138       S  0.41674375  0.90114540  0.53242759    -0.30900
H2139       H  0.40643199  0.89371987  0.45570104     0.10000
C2140       C  0.36435903  0.88973414  0.39042221     0.03200
C2141       C  0.36515760  0.88791190  0.35056111    -0.13200
C2142       C  0.37875200  0.87427361  0.33184837    -0.08900
C2143       C  0.39232401  0.86274719  0.35409555     0.06700
C2144       C  0.39096850  0.86417051  0.39377366    -0.14000
S2145       S  0.34763454  0.90814656  0.41335678    -0.30900
H2146       H  0.35499239  0.89704166  0.33394344     0.10900
S2147       S  0.41255174  0.84671215  0.33402970    -0.28000
H2148       H  0.40117712  0.85509866  0.41052773     0.08200
H2149       H  0.40506609  0.90877286  0.56387057     0.26600
H2150       H  0.33780983  0.91452035  0.38031728     0.21400
H2151       H  0.41890571  0.85993124  0.30539643     0.26700
H2152       H  0.34724734  0.85147656  0.42265291     0.15500
C2153       C  0.39148310  0.02413538  0.26764319    -0.11700
C2154       C  0.37281086  0.01288420  0.26558541     0.14800
C2155       C  0.35321986  0.02190849  0.27486056     0.01700
C2156       C  0.35268485  0.04197118  0.28507832    -0.16100
C2157       C  0.37128885  0.05341963  0.28684024    -0.10900
C2158       C  0.39098274  0.04417822  0.27865290     0.08400
C2159       C  0.37392499  0.99212194  0.25159878     0.09400
S2160       S  0.32821764  0.00886756  0.27322890    -0.25200
H2161       H  0.33748950  0.04872968  0.29165453     0.19700
S2162       S  0.41603382  0.05674381  0.28336955    -0.30900
H2163       H  0.40655746  0.01720997  0.26080527     0.10000
C2164       C  0.36931941  0.98727374  0.21367021     0.03200
C2165       C  0.36797208  0.96734057  0.20230566    -0.13200
C2166       C  0.37122711  0.95199417  0.22803453    -0.08900
C2167       C  0.37640337  0.95699644  0.26594579     0.06700
C2168       C  0.37797140  0.97696850  0.27713483    -0.14000
S2169       S  0.36506063  0.00657097  0.17982382    -0.30900
H2170       H  0.36437082  0.96367618  0.17310128     0.10900
S2171       S  0.37959764  0.93874831  0.30201704    -0.28000
H2172       H  0.38135280  0.98073218  0.30642176     0.08200
H2173       H  0.41013542  0.06728620  0.31671920     0.26600
H2174       H  0.36158032  0.99407411  0.14822587     0.21400
H2175       H  0.36210708  0.92730655  0.29067599     0.26700
H2176       H  0.33598181  0.98990943  0.28032121     0.15500
C2177       C  0.12565892  0.77352385  0.61140759    -0.11700
C2178       C  0.12103724  0.76149522  0.57958917     0.14800
C2179       C  0.11620490  0.77077309  0.54519697     0.01700
C2180       C  0.11533882  0.79144010  0.54373326    -0.16100
C2181       C  0.11969533  0.80360664  0.57548299    -0.10900
C2182       C  0.12532023  0.79436136  0.60959832     0.08400
C2183       C  0.11945232  0.73948996  0.58343682     0.09400
S2184       S  0.11072439  0.75711316  0.50199976    -0.25200
H2185       H  0.11128848  0.79812163  0.51711224     0.19700
S2186       S  0.13049391  0.80823622  0.65241861    -0.30900
H2187       H  0.12914237  0.76662219  0.63808211     0.10000
C2188       C  0.13727895  0.72743280  0.58874421     0.03200
C2189       C  0.13491004  0.70664085  0.58922207    -0.13200
C2190       C  0.11504708  0.69740248  0.58426723    -0.08900
C2191       C  0.09721774  0.70977493  0.57910917     0.06700
C2192       C  0.09961783  0.73040755  0.57937577    -0.14000
S2193       S  0.16318785  0.73846694  0.59357265    -0.30900
H2194       H  0.14865584  0.69753866  0.59348115     0.10900
S2195       S  0.07099001  0.70049806  0.56992677    -0.28000
H2196       H  0.08587606  0.73955332  0.57504636     0.08200
H2197       H  0.14772881  0.81854745  0.63605070     0.26600
H2198       H  0.17431399  0.72073980  0.59815660     0.21400
H2199       H  0.07801291  0.68698632  0.54157520     0.26700
H2200       H  0.12342350  0.74072368  0.50966133     0.15500
C2201       C  0.10170355  0.02655218  0.47889025    -0.11700
C2202       C  0.12029474  0.01525924  0.47934787     0.14800
C2203       C  0.13960374  0.02408617  0.46738105     0.01700
C2204       C  0.13988983  0.04371606  0.45512990    -0.16100
C2205       C  0.12135919  0.05516437  0.45467686    -0.10900
C2206       C  0.10195710  0.04619821  0.46629897     0.08400
C2207       C  0.11918474  0.99427542  0.49179228     0.09400
S2208       S  0.16451974  0.01114205  0.46696701    -0.25200
H2209       H  0.15489904  0.05018523  0.44620725     0.19700
S2210       S  0.07681908  0.05845716  0.46335694    -0.30900
H2211       H  0.08677339  0.01981963  0.48750686     0.10000
C2212       C  0.11664117  0.98953193  0.53048792     0.03200
C2213       C  0.11781612  0.96969106  0.54154685    -0.13200
C2214       C  0.12128714  0.95429038  0.51479098    -0.08900
C2215       C  0.12341381  0.95905375  0.47589358     0.06700
C2216       C  0.12219072  0.97889824  0.46485254    -0.14000
S2217       S  0.11267116  0.00882825  0.56601757    -0.30900
H2218       H  0.11607360  0.96610886  0.57132707     0.10900
S2219       S  0.12902803  0.94073883  0.43931078    -0.28000
H2220       H  0.12431809  0.98247308  0.43510742     0.08200
H2221       H  0.08140787  0.06677341  0.42769564     0.26600
H2222       H  0.11217394  0.99650160  0.59782349     0.21400
H2223       H  0.14231915  0.92923458  0.46146623     0.26700
H2224       H  0.15966190  0.99868696  0.49755182     0.15500
C2225       C  0.22560809  0.89245075  0.57751159    -0.11700
C2226       C  0.23250342  0.87756653  0.60144134     0.14800
C2227       C  0.21777154  0.86353431  0.61546925     0.01700
C2228       C  0.19630378  0.86560910  0.60770483    -0.16100
C2229       C  0.18912657  0.88131573  0.58585553    -0.10900
C2230       C  0.20418365  0.89430019  0.56909118     0.08400
C2231       C  0.25435126  0.87873980  0.61547696     0.09400
S2232       S  0.22519226  0.84326400  0.64498975    -0.25200
H2233       H  0.18501106  0.85541356  0.62046523     0.19700
S2234       S  0.19714390  0.91357053  0.53701888    -0.30900
H2235       H  0.23692227  0.90310487  0.56631609     0.10000
C2236       C  0.27217503  0.87477111  0.59183843     0.03200
C2237       C  0.29247758  0.87626550  0.60696373    -0.13200
C2238       C  0.29534348  0.88211181  0.64503663    -0.08900
C2239       C  0.27733085  0.88627861  0.66846888     0.06700
C2240       C  0.25715058  0.88461285  0.65337722    -0.14000
S2241       S  0.26910512  0.86755425  0.54266426    -0.30900
H2242       H  0.30620666  0.87307981  0.58893039     0.10900
S2243       S  0.27877002  0.89315115  0.71807223    -0.28000
H2244       H  0.24341110  0.88780505  0.67144550     0.08200
H2245       H  0.17999238  0.90317922  0.52130449     0.26600
H2246       H  0.29073652  0.86830202  0.53219518     0.21400
H2247       H  0.29449531  0.87929605  0.72614692     0.26700
H2248       H  0.24631119  0.84199982  0.63170166     0.15500
C2249       C  0.11122578  0.73008973  0.06188954    -0.11700
C2250       C  0.12555178  0.73861715  0.08750132     0.14800
C2251       C  0.13748912  0.72580834  0.11012549     0.01700
C2252       C  0.13503928  0.70514832  0.10616432    -0.16100
C2253       C  0.12026641  0.69671589  0.08131917    -0.10900
C2254       C  0.10849765  0.70949344  0.05849478     0.08400
C2255       C  0.12676459  0.76080788  0.09037381     0.09400
S2256       S  0.15514941  0.73466912  0.14624662    -0.25200
H2257       H  0.14391203  0.69557835  0.12427358     0.19700
S2258       S  0.08992432  0.70045973  0.02403955    -0.30900
H2259       H  0.10200531  0.73963176  0.04428737     0.10000
C2260       C  0.14502190  0.77175419  0.07936720     0.03200
C2261       C  0.14429999  0.79265177  0.07889807    -0.13200
C2262       C  0.12560697  0.80294675  0.08865958    -0.08900
C2263       C  0.10775491  0.79197928  0.10141895     0.06700
C2264       C  0.10849070  0.77123572  0.10199384    -0.14000
S2265       S  0.16863923  0.75924746  0.06232819    -0.30900
H2266       H  0.15785262  0.80089453  0.06813701     0.10900
S2267       S  0.08326004  0.80366717  0.11624188    -0.28000
H2268       H  0.09444993  0.76308006  0.11084484     0.08200
H2269       H  0.10060322  0.68267552  0.01553048     0.26600
H2270       H  0.18216582  0.77579499  0.06505838     0.21400
H2271       H  0.09255508  0.82153756  0.12857935     0.26700
H2272       H  0.14520336  0.75293912  0.15318320     0.15500
C2273       C  0.13429801  0.85876147  0.83935202    -0.11700
C2274       C  0.12430274  0.87464163  0.82230241     0.14800
C2275       C  0.11402961  0.88911826  0.84536633     0.01700
C2276       C  0.11417416  0.88751414  0.88489674    -0.16100
C2277       C  0.12407635  0.87158916  0.90214661    -0.10900
C2278       C  0.13454245  0.85718799  0.87891165     0.08400
C2279       C  0.12541121  0.87605081  0.78047406     0.09400
S2280       S  0.10020639  0.90980543  0.82610993    -0.25200
H2281       H  0.10578397  0.89840856  0.90229727     0.19700
S2282       S  0.14925335  0.83694222  0.89775648    -0.30900
H2283       H  0.14240181  0.84776733  0.82168288     0.10000
C2284       C  0.13839825  0.89020331  0.76247261     0.03200
C2285       C  0.13807973  0.89177904  0.72290031    -0.13200
C2286       C  0.12502858  0.87948244  0.70061919    -0.08900
C2287       C  0.11225438  0.86503671  0.71903513     0.06700
C2288       C  0.11287408  0.86331389  0.75857420    -0.14000
S2289       S  0.15563757  0.90605821  0.78988324    -0.30900
H2290       H  0.14819405  0.90265372  0.70925256     0.10900
S2291       S  0.09394045  0.84911219  0.69449388    -0.28000
H2292       H  0.10289567  0.85242498  0.77259900     0.08200
H2293       H  0.15669839  0.84765356  0.92938198     0.26600
H2294       H  0.16466839  0.91639086  0.75910380     0.21400
H2295       H  0.08551881  0.86445064  0.67305351     0.26700
H2296       H  0.09365008  0.89994471  0.79291216     0.15500
C2297       C  0.11013171  0.89001580  0.34250086    -0.11700
C2298       C  0.12438266  0.87789547  0.32186783     0.14800
C2299       C  0.13779439  0.86517192  0.34145454     0.01700
C2300       C  0.13666271  0.86481154  0.38114885    -0.16100
C2301       C  0.12219030  0.87669886  0.40185470    -0.10900
C2302       C  0.10862254  0.88928495  0.38220231     0.08400
C2303       C  0.12544069  0.87931887  0.28003359     0.09400
S2304       S  0.15676050  0.84920945  0.31743683    -0.25200
H2305       H  0.14692687  0.85492130  0.39602501     0.19700
S2306       S  0.08819214  0.90370335  0.40593958    -0.30900
H2307       H  0.09976412  0.89973903  0.32747537     0.10000
C2308       C  0.11253921  0.86751755  0.25659011     0.03200
C2309       C  0.11448019  0.86913059  0.21693566    -0.13200
C2310       C  0.12884630  0.88257081  0.20026735    -0.08900
C2311       C  0.14189162  0.89425277  0.22418705     0.06700
C2312       C  0.13985654  0.89261591  0.26363238    -0.14000
S2313       S  0.09374962  0.85032897  0.27727516    -0.30900
H2314       H  0.10450591  0.86015612  0.19885587     0.10900
S2315       S  0.16211039  0.91091648  0.20653934    -0.28000
H2316       H  0.14987274  0.90155155  0.28177645     0.08200
H2317       H  0.08216243  0.88888860  0.43166722     0.26600
H2318       H  0.08472834  0.84397195  0.24298741     0.21400
H2319       H  0.16883174  0.89839531  0.17637364     0.26700
H2320       H  0.14410888  0.84455490  0.28622988     0.15500
C2321       C  0.10552980  0.02503503  0.97888461    -0.11700
C2322       C  0.12349779  0.01300424  0.97415706     0.14800
C2323       C  0.14204821  0.02127311  0.95759430     0.01700
C2324       C  0.14199514  0.04087023  0.94500528    -0.16100
C2325       C  0.12400026  0.05302685  0.94927171    -0.10900
C2326       C  0.10551695  0.04477692  0.96666469     0.08400
C2327       C  0.12259322  0.99199730  0.98693545     0.09400
S2328       S  0.16649165  0.00772856  0.95202943    -0.25200
H2329       H  0.15643391  0.04677981  0.93228538     0.19700
S2330       S  0.08112608  0.05823546  0.97293762    -0.30900
H2331       H  0.09125368  0.01887809  0.99176338     0.10000
C2332       C  0.12450782  0.98730735  0.02553243     0.03200
C2333       C  0.12558278  0.96739769  0.03627886    -0.13200
C2334       C  0.12424549  0.95174857  0.00951587    -0.08900
C2335       C  0.12137871  0.95645622  0.97090465     0.06700
C2336       C  0.12087228  0.97648429  0.96003006    -0.14000
S2337       S  0.12616116  0.00676609  0.06112802    -0.30900
H2338       H  0.12739748  0.96396212  0.06594361     0.10900
S2339       S  0.11958632  0.93722618  0.93494231    -0.28000
H2340       H  0.11947231  0.98013545  0.93037175     0.08200
H2341       H  0.08165430  0.06581053  0.93593877     0.26600
H2342       H  0.13020107  0.99452325  0.09200533     0.21400
H2343       H  0.11394221  0.94951810  0.90499907     0.26700
H2344       H  0.16333908  0.99531498  0.98328135     0.15500
C2345       C  0.27331008  0.86655389  0.10892754    -0.11700
C2346       C  0.25951950  0.88128248  0.12277999     0.14800
C2347       C  0.26739863  0.89637919  0.14691274     0.01700
C2348       C  0.28909470  0.89735105  0.15404657    -0.16100
C2349       C  0.30313040  0.88296739  0.13925981    -0.10900
C2350       C  0.29489063  0.86709663  0.11721037     0.08400
C2351       C  0.23723658  0.88109511  0.11037454     0.09400
S2352       S  0.25057673  0.91491859  0.16912451    -0.25200
H2353       H  0.29507935  0.90946096  0.17134100     0.19700
S2354       S  0.31135763  0.84806307  0.09610707    -0.30900
H2355       H  0.26730861  0.85482124  0.09072350     0.10000
C2356       C  0.22959231  0.89569943  0.08618001     0.03200
C2357       C  0.20788685  0.89635947  0.07863236    -0.13200
C2358       C  0.19363682  0.88241657  0.09404146    -0.08900
C2359       C  0.20165416  0.86717639  0.11680883     0.06700
C2360       C  0.22331880  0.86658650  0.12430107    -0.14000
S2361       S  0.24753670  0.91344440  0.06477994    -0.30900
H2362       H  0.20191744  0.90794317  0.06100112     0.10900
S2363       S  0.18502737  0.84896351  0.13974932    -0.28000
H2364       H  0.22922327  0.85527689  0.14269350     0.08200
H2365       H  0.31631787  0.84036486  0.13167209     0.26600
H2366       H  0.23250567  0.92289914  0.04263137     0.21400
H2367       H  0.17007459  0.86277879  0.15355628     0.26700
H2368       H  0.23242983  0.90284585  0.17217189     0.15500
C2369       C  0.52490549  0.13519615  0.75540298    -0.11700
C2370       C  0.51527688  0.12616491  0.78702062     0.14800
C2371       C  0.52803602  0.11811952  0.81521432     0.01700
C2372       C  0.55009246  0.11984183  0.81178154    -0.16100
C2373       C  0.55971260  0.12939289  0.78073225    -0.10900
C2374       C  0.54695805  0.13669464  0.75174738     0.08400
C2375       C  0.49192654  0.12642246  0.79062778     0.09400
S2376       S  0.51719134  0.10655599  0.85724678    -0.25200
H2377       H  0.55980650  0.11424564  0.83413610     0.19700
S2378       S  0.55790469  0.14775655  0.70926124    -0.30900
H2379       H  0.51513868  0.14124139  0.73356802     0.10000
C2380       C  0.48133768  0.14245233  0.80836343     0.03200
C2381       C  0.45916728  0.14289435  0.80887657    -0.13200
C2382       C  0.44722933  0.12764819  0.79187558    -0.08900
C2383       C  0.45801331  0.11133192  0.77490752     0.06700
C2384       C  0.48019121  0.11089688  0.77453321    -0.14000
S2385       S  0.49608329  0.16267847  0.82926660    -0.30900
H2386       H  0.45106658  0.15541970  0.82197807     0.10900
S2387       S  0.44458626  0.09146422  0.75068875    -0.28000
H2388       H  0.48841296  0.09863113  0.76068458     0.08200
H2389       H  0.57629756  0.13610796  0.70731479     0.26600
H2390       H  0.47864679  0.17228512  0.84682813     0.21400
H2391       H  0.43174820  0.10441167  0.73075360     0.26700
H2392       H  0.49837021  0.09961069  0.84120070     0.15500
C2393       C  0.63205449  0.23554449  0.82506141    -0.11700
C2394       C  0.62919657  0.24409951  0.86130240     0.14800
C2395       C  0.62685666  0.23165220  0.89307822     0.01700
C2396       C  0.62647395  0.21096462  0.88751308    -0.16100
C2397       C  0.62840780  0.20250186  0.85085108    -0.10900
C2398       C  0.63194586  0.21505031  0.81955451     0.08400
C2399       C  0.62722050  0.26596871  0.86356974     0.09400
S2400       S  0.62367922  0.24117403  0.94104395    -0.25200
H2401       H  0.62386229  0.20147986  0.91170637     0.19700
S2402       S  0.63632706  0.20582707  0.77161124    -0.30900
H2403       H  0.63405316  0.24499145  0.80063296     0.10000
C2404       C  0.64489248  0.27844349  0.85735213     0.03200
C2405       C  0.64183109  0.29873556  0.85158317    -0.13200
C2406       C  0.62138910  0.30675223  0.85116803    -0.08900
C2407       C  0.60385839  0.29446256  0.86031974     0.06700
C2408       C  0.60693011  0.27424030  0.86615581    -0.14000
S2409       S  0.67125704  0.26828434  0.85480797    -0.30900
H2410       H  0.65529601  0.30813713  0.84485544     0.10900
S2411       S  0.57721796  0.30366855  0.86461741    -0.28000
H2412       H  0.59331603  0.26473074  0.87122513     0.08200
H2413       H  0.64669471  0.18843186  0.78190590     0.26600
H2414       H  0.68202099  0.28622874  0.84830401     0.21400
H2415       H  0.58318026  0.32258903  0.87791137     0.26700
H2416       H  0.63247018  0.25999648  0.93466898     0.15500
C2417       C  0.51845439  0.13954179  0.26684683    -0.11700
C2418       C  0.50879723  0.12648443  0.29241455     0.14800
C2419       C  0.52150582  0.11451321  0.31502997     0.01700
C2420       C  0.54363480  0.11627259  0.31207583    -0.16100
C2421       C  0.55337251  0.12980178  0.28714088    -0.10900
C2422       C  0.54044044  0.14125620  0.26365538     0.08400
C2423       C  0.48543876  0.12670868  0.29545941     0.09400
S2424       S  0.51062900  0.09759031  0.34958608    -0.25200
H2425       H  0.55329534  0.10745084  0.33026967     0.19700
S2426       S  0.55066055  0.15834697  0.22876873    -0.30900
H2427       H  0.50868015  0.14863815  0.24931968     0.10000
C2428       C  0.47486197  0.14095387  0.31839569     0.03200
C2429       C  0.45284019  0.14279812  0.31620638    -0.13200
C2430       C  0.44114124  0.13051927  0.29179416    -0.08900
C2431       C  0.45177728  0.11593890  0.26944456     0.06700
C2432       C  0.47378798  0.11417412  0.27158183    -0.14000
S2433       S  0.48952428  0.15710417  0.34971806    -0.30900
H2434       H  0.44467478  0.15394703  0.33335993     0.10900
S2435       S  0.43845360  0.10014227  0.23576654    -0.28000
H2436       H  0.48201504  0.10345609  0.25347559     0.08200
H2437       H  0.56827675  0.14694117  0.21751295     0.26600
H2438       H  0.47184556  0.16600662  0.36788905     0.21400
H2439       H  0.42428617  0.11463927  0.22391056     0.26700
H2440       H  0.49049931  0.09525610  0.33406661     0.15500
C2441       C  0.60338171  0.23057368  0.37684835    -0.11700
C2442       C  0.62173137  0.24098316  0.36586908     0.14800
C2443       C  0.64053311  0.23030849  0.35768097     0.01700
C2444       C  0.64009937  0.20953357  0.35754963    -0.16100
C2445       C  0.62125102  0.19911129  0.36529944    -0.10900
C2446       C  0.60296676  0.20984127  0.37682464     0.08400
C2447       C  0.61967515  0.26229584  0.35681798     0.09400
S2448       S  0.66500924  0.24226116  0.34363934    -0.25200
H2449       H  0.65417334  0.20148746  0.34847049     0.19700
S2450       S  0.57833741  0.19788342  0.39002120    -0.30900
H2451       H  0.58893832  0.23863694  0.38342161     0.10000
C2452       C  0.61543750  0.26803176  0.31948910     0.03200
C2453       C  0.61247625  0.28808117  0.31163559    -0.13200
C2454       C  0.61381399  0.30282987  0.34016755    -0.08900
C2455       C  0.61833173  0.29700508  0.37764700     0.06700
C2456       C  0.62086483  0.27683841  0.38564031    -0.14000
S2457       S  0.61351692  0.24969626  0.28174082    -0.30900
H2458       H  0.60934152  0.29232585  0.28280607     0.10900
S2459       S  0.61988894  0.31442043  0.41671839    -0.28000
H2460       H  0.62387297  0.27244963  0.41446696     0.08200
H2461       H  0.58758166  0.18032221  0.40240957     0.26600
H2462       H  0.60750396  0.26266336  0.25315120     0.21400
H2463       H  0.63851903  0.32331400  0.40218565     0.26700
H2464       H  0.66092011  0.26037039  0.36246408     0.15500
C2465       C  0.64768812  0.11653173  0.53107844    -0.11700
C2466       C  0.63017570  0.12447726  0.55092370     0.14800
C2467       C  0.61272080  0.13136992  0.53065659     0.01700
C2468       C  0.61311869  0.12991484  0.49091927    -0.16100
C2469       C  0.63055789  0.12173193  0.47103670    -0.10900
C2470       C  0.64812769  0.11519088  0.49144749     0.08400
C2471       C  0.63072874  0.12542106  0.59272566     0.09400
S2472       S  0.58915862  0.14138766  0.55358361    -0.25200
H2473       H  0.59955015  0.13483520  0.47542625     0.19700
S2474       S  0.67179593  0.10552397  0.46854801    -0.30900
H2475       H  0.66116705  0.11144682  0.54663071     0.10000
C2476       C  0.62273221  0.10990387  0.61513057     0.03200
C2477       C  0.62263074  0.11193906  0.65486198    -0.13200
C2478       C  0.63068484  0.12911773  0.67246461    -0.08900
C2479       C  0.64010900  0.14398686  0.64965229     0.06700
C2480       C  0.63975906  0.14208289  0.61012605    -0.14000
S2481       S  0.61230582  0.08773779  0.59303987    -0.30900
H2482       H  0.61555436  0.10045792  0.67217889     0.10900
S2483       S  0.65332396  0.16548226  0.66905979    -0.28000
H2484       H  0.64654327  0.15369328  0.59271608     0.08200
H2485       H  0.67142069  0.11852213  0.43783032     0.26600
H2486       H  0.60994619  0.07684183  0.62657953     0.21400
H2487       H  0.66135839  0.15568339  0.70054587     0.26700
H2488       H  0.59836572  0.14790318  0.58747702     0.15500
C2489       C  0.60764814  0.11781206  0.11394985    -0.11700
C2490       C  0.62270757  0.12941147  0.09446016     0.14800
C2491       C  0.63604831  0.14217582  0.11527585     0.01700
C2492       C  0.63417033  0.14286483  0.15497821    -0.16100
C2493       C  0.61932741  0.13104563  0.17461459    -0.10900
C2494       C  0.60553487  0.11869615  0.15363912     0.08400
C2495       C  0.62384458  0.12792602  0.05245132     0.09400
S2496       S  0.65563703  0.15807498  0.09314350    -0.25200
H2497       H  0.64454748  0.15262695  0.17078808     0.19700
S2498       S  0.58406553  0.10460335  0.17485765    -0.30900
H2499       H  0.59712106  0.10829041  0.09793964     0.10000
C2500       C  0.63304364  0.11140200  0.03397732     0.03200
C2501       C  0.63325063  0.11011871  0.99424397    -0.13200
C2502       C  0.62456108  0.12509375  0.97202467    -0.08900
C2503       C  0.61548290  0.14181086  0.99096318     0.06700
C2504       C  0.61536247  0.14305095  0.03080667    -0.14000
S2505       S  0.64509698  0.09216265  0.06103324    -0.30900
H2506       H  0.64056650  0.09738002  0.98046283     0.10900
S2507       S  0.60319540  0.16175263  0.96653215    -0.28000
H2508       H  0.60827495  0.15577139  0.04515629     0.08200
H2509       H  0.58200194  0.11531003  0.20911580     0.26600
H2510       H  0.65401072  0.08155517  0.02992644     0.21400
H2511       H  0.59169095  0.14912736  0.94234192     0.26700
H2512       H  0.65882425  0.14684479  0.05959828     0.15500
C2513       C  0.97500732  0.11765372  0.95914421    -0.11700
C2514       C  0.98720541  0.13171247  0.93944974     0.14800
C2515       C  0.97691350  0.14667550  0.91949152     0.01700
C2516       C  0.95478350  0.14768066  0.92090267    -0.16100
C2517       C  0.94244278  0.13389523  0.94129217    -0.10900
C2518       C  0.95283343  0.11863463  0.96056168     0.08400
C2519       C  0.01050148  0.13158396  0.94343037     0.09400
S2520       S  0.99099356  0.16540898  0.89287491    -0.25200
H2521       H  0.94711052  0.15939985  0.90584213     0.19700
S2522       S  0.93896888  0.10081049  0.98961731    -0.30900
H2523       H  0.98288035  0.10631234  0.97488810     0.10000
C2524       C  0.02019592  0.14267577  0.97247761     0.03200
C2525       C  0.04233305  0.14290266  0.97464637    -0.13200
C2526       C  0.05515848  0.13246909  0.94803875    -0.08900
C2527       C  0.04527477  0.12144954  0.91875720     0.06700
C2528       C  0.02310990  0.12074328  0.91733224    -0.14000
S2529       S  0.00433005  0.15675064  0.00656112    -0.30900
H2530       H  0.04973349  0.15140920  0.99707702     0.10900
S2531       S  0.05994825  0.10960402  0.88042432    -0.28000
H2532       H  0.01563736  0.11246109  0.89464034     0.08200
H2533       H  0.92488970  0.11462756  0.00644208     0.26600
H2534       H  0.02121167  0.16439897  0.02773136     0.21400
H2535       H  0.07299687  0.12622962  0.87410506     0.26700
H2536       H  0.00940944  0.15448327  0.88473355     0.15500
C2537       C  0.88561756  0.23010664  0.83854290    -0.11700
C2538       C  0.86612011  0.23953815  0.84506137     0.14800
C2539       C  0.84818811  0.22814972  0.85579004     0.01700
C2540       C  0.85057221  0.20794439  0.86269998    -0.16100
C2541       C  0.87054734  0.19898820  0.85989397    -0.10900
C2542       C  0.88802241  0.20998892  0.84586276     0.08400
C2543       C  0.86639639  0.26132763  0.84936354     0.09400
S2544       S  0.82245940  0.23883555  0.86547558    -0.25200
H2545       H  0.83707073  0.19954635  0.87329917     0.19700
S2546       S  0.91398488  0.19942056  0.83861816    -0.30900
H2547       H  0.89940916  0.23878731  0.83030689     0.10000
C2548       C  0.87109714  0.26995756  0.88482286     0.03200
C2549       C  0.87312909  0.29047796  0.88819895    -0.13200
C2550       C  0.87007235  0.30279493  0.85709547    -0.08900
C2551       C  0.86457314  0.29421420  0.82171857     0.06700
C2552       C  0.86311694  0.27345690  0.81807809    -0.14000
S2553       S  0.87495108  0.25474466  0.92583373    -0.30900
H2554       H  0.87710903  0.29700618  0.91542627     0.10900
S2555       S  0.86037752  0.30940817  0.78087487    -0.28000
H2556       H  0.85951818  0.26660923  0.79095892     0.08200
H2557       H  0.90682391  0.18003358  0.83113516     0.26600
H2558       H  0.87522362  0.27025509  0.95294898     0.21400
H2559       H  0.85641428  0.29384699  0.75494835     0.26700
H2560       H  0.82572958  0.25646911  0.84565171     0.15500
C2561       C  0.77120138  0.11364821  0.84230259    -0.11700
C2562       C  0.76100696  0.12587531  0.86944265     0.14800
C2563       C  0.77302005  0.13567194  0.89739807     0.01700
C2564       C  0.79496357  0.13291271  0.89770368    -0.16100
C2565       C  0.80519634  0.12041139  0.87087675    -0.10900
C2566       C  0.79311332  0.11095552  0.84245545     0.08400
C2567       C  0.73766878  0.12652481  0.86978969     0.09400
S2568       S  0.76125009  0.15129907  0.93411543    -0.25200
H2569       H  0.80408549  0.14032514  0.91946285     0.19700
S2570       S  0.80470351  0.09578142  0.80492308    -0.30900
H2571       H  0.76195831  0.10606395  0.82091585     0.10000
C2572       C  0.72651402  0.13805098  0.84404633     0.03200
C2573       C  0.70430382  0.13683753  0.84371564    -0.13200
C2574       C  0.69319408  0.12421429  0.86857221    -0.08900
C2575       C  0.70450807  0.11366775  0.89586158     0.06700
C2576       C  0.72655861  0.11467562  0.89569159    -0.14000
S2577       S  0.74062491  0.15406095  0.81150546    -0.30900
H2578       H  0.69564159  0.14515583  0.82322430     0.10900
S2579       S  0.69176570  0.09908728  0.93238266    -0.28000
H2580       H  0.73518270  0.10612589  0.91593526     0.08200
H2581       H  0.82249618  0.10807240  0.79911323     0.26600
H2582       H  0.72265789  0.16206485  0.79475772     0.21400
H2583       H  0.67452196  0.11196637  0.93805222     0.26700
H2584       H  0.74337900  0.15684806  0.91391103     0.15500
C2585       C  0.97089092  0.11602055  0.45941132    -0.11700
C2586       C  0.98345152  0.13081388  0.44275701     0.14800
C2587       C  0.97358581  0.14668834  0.42482498     0.01700
C2588       C  0.95151027  0.14812041  0.42594406    -0.16100
C2589       C  0.93873070  0.13369910  0.44367596    -0.10900
C2590       C  0.94872843  0.11731053  0.46036143     0.08400
C2591       C  0.00668156  0.13054330  0.44769500     0.09400
S2592       S  0.98842302  0.16574625  0.40057267    -0.25200
H2593       H  0.94426503  0.16062289  0.41256710     0.19700
S2594       S  0.93445510  0.09824640  0.48563443    -0.30900
H2595       H  0.97844435  0.10385188  0.47334088     0.10000
C2596       C  0.01635187  0.14359580  0.47368624     0.03200
C2597       C  0.03847998  0.14452289  0.47499384    -0.13200
C2598       C  0.05135981  0.13257817  0.45101480    -0.08900
C2599       C  0.04149062  0.11899301  0.42583338     0.06700
C2600       C  0.01931531  0.11794874  0.42482679    -0.14000
S2601       S  0.00047101  0.15919631  0.50515605    -0.30900
H2602       H  0.04581637  0.15477883  0.49469169     0.10900
S2603       S  0.05614539  0.10396791  0.39192779    -0.28000
H2604       H  0.01186088  0.10794712  0.40475459     0.08200
H2605       H  0.92169753  0.11160113  0.50688429     0.26600
H2606       H  0.01722994  0.16676985  0.52672490     0.21400
H2607       H  0.06781900  0.12022250  0.37814444     0.26700
H2608       H  0.00492489  0.15331709  0.38755279     0.15500
C2609       C  0.86058842  0.24064473  0.39602944    -0.11700
C2610       C  0.86912300  0.24682717  0.36103209     0.14800
C2611       C  0.87667704  0.23226664  0.33470036     0.01700
C2612       C  0.87596058  0.21209069  0.34433189    -0.16100
C2613       C  0.86800397  0.20602201  0.37994164    -0.10900
C2614       C  0.85992695  0.22060897  0.40568847     0.08400
C2615       C  0.87152921  0.26858589  0.35477715     0.09400
S2616       S  0.88820487  0.23852175  0.28908319    -0.25200
H2617       H  0.88248370  0.20115693  0.32454038     0.19700
S2618       S  0.84900125  0.21465680  0.45195868    -0.30900
H2619       H  0.85484470  0.25162811  0.41649635     0.10000
C2620       C  0.85404157  0.28081560  0.34797189     0.03200
C2621       C  0.85689553  0.30147707  0.34537489    -0.13200
C2622       C  0.87686962  0.31049098  0.35031521    -0.08900
C2623       C  0.89427189  0.29801816  0.35793139     0.06700
C2624       C  0.89147656  0.27739965  0.35918669    -0.14000
S2625       S  0.82801100  0.27008503  0.34278448    -0.30900
H2626       H  0.84340051  0.31066917  0.33972275     0.10900
S2627       S  0.92014555  0.30734211  0.36951440    -0.28000
H2628       H  0.90486224  0.26815304  0.36546625     0.08200
H2629       H  0.84087350  0.19602976  0.44122002     0.26600
H2630       H  0.81786786  0.28747772  0.33181723     0.21400
H2631       H  0.91226249  0.32196327  0.39495171     0.26700
H2632       H  0.87729232  0.25638573  0.28507405     0.15500
C2633       C  0.86468394  0.10935472  0.61659660    -0.11700
C2634       C  0.87378076  0.12401269  0.63969611     0.14800
C2635       C  0.88460219  0.13995126  0.62270398     0.01700
C2636       C  0.88480568  0.14167611  0.58325465    -0.16100
C2637       C  0.87524188  0.12733507  0.55954191    -0.10900
C2638       C  0.86570718  0.11054009  0.57685902     0.08400
C2639       C  0.87214765  0.12221739  0.68144551     0.09400
S2640       S  0.89857231  0.15852917  0.64984882    -0.25200
H2641       H  0.89279215  0.15439357  0.57112517     0.19700
S2642       S  0.85484725  0.08994836  0.55054551    -0.30900
H2643       H  0.85689968  0.09677499  0.62968545     0.10000
C2644       C  0.85878111  0.13458808  0.70381699     0.03200
C2645       C  0.85895709  0.13327904  0.74355775    -0.13200
C2646       C  0.87204108  0.11965175  0.76128141    -0.08900
C2647       C  0.88531363  0.10723005  0.73859322     0.06700
C2648       C  0.88503015  0.10849383  0.69902357    -0.14000
S2649       S  0.84115992  0.15164387  0.68167463    -0.30900
H2650       H  0.84856093  0.14258664  0.76090170     0.10900
S2651       S  0.90370448  0.09014577  0.75833669    -0.28000
H2652       H  0.89544535  0.09914024  0.68176410     0.08200
H2653       H  0.87388778  0.08646524  0.52995938     0.26600
H2654       H  0.83108858  0.15861470  0.71533011     0.21400
H2655       H  0.90880041  0.10232193  0.78964705     0.26700
H2656       H  0.90523525  0.14573458  0.67822029     0.15500
C2657       C  0.85560703  0.12498281  0.19738312    -0.11700
C2658       C  0.87220933  0.13594743  0.18095196     0.14800
C2659       C  0.88673618  0.14575173  0.20479775     0.01700
C2660       C  0.88476818  0.14374970  0.24438654    -0.16100
C2661       C  0.86875928  0.13188965  0.26082279    -0.10900
C2662       C  0.85355174  0.12304877  0.23679049     0.08400
C2663       C  0.87392139  0.13649246  0.13886528     0.09400
S2664       S  0.90840837  0.16054634  0.18650473    -0.25200
H2665       H  0.89637883  0.15082299  0.26234169     0.19700
S2666       S  0.83068518  0.10969081  0.25450561    -0.30900
H2667       H  0.84410451  0.11786472  0.17924128     0.10000
C2668       C  0.88168542  0.12013504  0.11757494     0.03200
C2669       C  0.88219698  0.12069798  0.07768413    -0.13200
C2670       C  0.87519777  0.13738195  0.05842037    -0.08900
C2671       C  0.86713418  0.15371513  0.08011641     0.06700
C2672       C  0.86679680  0.15312919  0.11990928    -0.14000
S2673       S  0.89158025  0.09876073  0.14141946    -0.30900
H2674       H  0.88853463  0.10825938  0.06142852     0.10900
S2675       S  0.85618012  0.17543902  0.05911794    -0.28000
H2676       H  0.86050660  0.16557930  0.13626906     0.08200
H2677       H  0.82717627  0.12251829  0.28586401     0.26600
H2678       H  0.89711056  0.08772630  0.10848246     0.21400
H2679       H  0.84608137  0.16502520  0.02965923     0.26700
H2680       H  0.91144948  0.14989491  0.15221156     0.15500
C2681       C  0.77039603  0.13970721  0.37864839    -0.11700
C2682       C  0.76041668  0.12458458  0.35776653     0.14800
C2683       C  0.77293430  0.10966856  0.34011276     0.01700
C2684       C  0.79472673  0.10943927  0.34588045    -0.16100
C2685       C  0.80478895  0.12405839  0.36805292    -0.10900
C2686       C  0.79236775  0.13957569  0.38407770     0.08400
C2687       C  0.73692211  0.12354531  0.35794845     0.09400
S2688       S  0.76215393  0.09024202  0.31034806    -0.25200
H2689       H  0.80399019  0.09771279  0.33243263     0.19700
S2690       S  0.80326958  0.15865907  0.41405886    -0.30900
H2691       H  0.76086590  0.15118139  0.39229770     0.10000
C2692       C  0.72596351  0.10868155  0.37812239     0.03200
C2693       C  0.70390903  0.10719060  0.37570918    -0.13200
C2694       C  0.69226722  0.12044139  0.35408303    -0.08900
C2695       C  0.70332005  0.13554493  0.33437383     0.06700
C2696       C  0.72544600  0.13704435  0.33678921    -0.14000
S2697       S  0.74002652  0.09182045  0.40771595    -0.30900
H2698       H  0.69561573  0.09573588  0.39130021     0.10900
S2699       S  0.69032050  0.15240819  0.30372599    -0.28000
H2700       H  0.73385876  0.14839964  0.32105105     0.08200
H2701       H  0.81426888  0.14511016  0.43597646     0.26600
H2702       H  0.72231330  0.08079296  0.42019163     0.21400
H2703       H  0.67816149  0.13740918  0.28652563     0.26700
H2704       H  0.74365653  0.10013213  0.30038678     0.15500
C2705       C  0.88841161  0.72792480  0.57210939    -0.11700
C2706       C  0.86865641  0.73743720  0.57358653     0.14800
C2707       C  0.85016190  0.72558527  0.57027734     0.01700
C2708       C  0.85186576  0.70503038  0.56390878    -0.16100
C2709       C  0.87165491  0.69568572  0.56105393    -0.10900
C2710       C  0.89007884  0.70734226  0.56645055     0.08400
C2711       C  0.86804128  0.75969797  0.57442762     0.09400
S2712       S  0.82388049  0.73582005  0.57314883    -0.25200
H2713       H  0.83759705  0.69636084  0.55975951     0.19700
S2714       S  0.91622012  0.69679223  0.56648678    -0.30900
H2715       H  0.90275439  0.73667882  0.57452837     0.10000
C2716       C  0.87692682  0.77130378  0.60400232     0.03200
C2717       C  0.87771330  0.79216049  0.60121646    -0.13200
C2718       C  0.86959594  0.80175783  0.56964166    -0.08900
C2719       C  0.85979810  0.79016855  0.54115907     0.06700
C2720       C  0.85936489  0.76947043  0.54357749    -0.14000
S2721       S  0.88726217  0.75960917  0.64534152    -0.30900
H2722       H  0.88532238  0.80096927  0.62298162     0.10900
S2723       S  0.84799983  0.80100382  0.50030779    -0.28000
H2724       H  0.85248865  0.76085097  0.52071363     0.08200
H2725       H  0.90970867  0.67866910  0.58214051     0.26600
H2726       H  0.89275649  0.77710737  0.66501166     0.21400
H2727       H  0.84173595  0.81867449  0.51888874     0.26700
H2728       H  0.82900526  0.75160369  0.59782905     0.15500
C2729       C  0.97360480  0.89260920  0.48541898    -0.11700
C2730       C  0.98543593  0.87923559  0.50621230     0.14800
C2731       C  0.97486967  0.86401175  0.52615568     0.01700
C2732       C  0.95292533  0.86205500  0.52391059    -0.16100
C2733       C  0.94097323  0.87522503  0.50287879    -0.10900
C2734       C  0.95150994  0.89071361  0.48333165     0.08400
C2735       C  0.00884511  0.88001233  0.50379708     0.09400
S2736       S  0.98853589  0.84622203  0.55415029    -0.25200
H2737       H  0.94504188  0.85023487  0.53925099     0.19700
S2738       S  0.93795189  0.90771394  0.45350169    -0.30900
H2739       H  0.98171700  0.90411759  0.46959576     0.10000
C2740       C  0.02010289  0.86705234  0.47914150     0.03200
C2741       C  0.04213373  0.86572956  0.48166527    -0.13200
C2742       C  0.05330753  0.87705952  0.50848385    -0.08900
C2743       C  0.04196525  0.89073889  0.53205696     0.06700
C2744       C  0.01992721  0.89223125  0.52910329    -0.14000
S2745       S  0.00628473  0.85189232  0.44489316    -0.30900
H2746       H  0.05070945  0.85562949  0.46281773     0.10900
S2747       S  0.05427139  0.90538706  0.56861092    -0.28000
H2748       H  0.01120822  0.90211606  0.54822360     0.08200
H2749       H  0.92313835  0.89381498  0.44005263     0.26600
H2750       H  0.02418828  0.84214772  0.42938445     0.21400
H2751       H  0.06513168  0.88916071  0.58307336     0.26700
H2752       H  0.00498154  0.85890153  0.56550563     0.15500
C2753       C  0.87962550  0.97989765  0.46675793    -0.11700
C2754       C  0.87345455  0.99489693  0.49274961     0.14800
C2755       C  0.86711315  0.98943163  0.52989488     0.01700
C2756       C  0.86724134  0.96938785  0.54010973    -0.16100
C2757       C  0.87312686  0.95413697  0.51405628    -0.10900
C2758       C  0.87951467  0.95972171  0.47674908     0.08400
C2759       C  0.87275986  0.01586136  0.47945932     0.09400
S2760       S  0.85864455  0.00727652  0.56573483    -0.25200
H2761       H  0.86243677  0.96569597  0.56889066     0.19700
S2762       S  0.88649576  0.94144762  0.44066778    -0.30900
H2763       H  0.88418165  0.98407308  0.43814347     0.10000
C2764       C  0.88959115  0.02941224  0.48478143     0.03200
C2765       C  0.88838209  0.04869958  0.47001591    -0.13200
C2766       C  0.87055829  0.05492636  0.45012990    -0.08900
C2767       C  0.85327048  0.04154396  0.44687837     0.06700
C2768       C  0.85477142  0.02222751  0.46065060    -0.14000
S2769       S  0.91282086  0.02197663  0.50961455    -0.30900
H2770       H  0.90160701  0.05880202  0.47314057     0.10900
S2771       S  0.82833171  0.04844173  0.42724426    -0.28000
H2772       H  0.84154753  0.01211341  0.45731965     0.08200
H2773       H  0.89351923  0.95468239  0.41259584     0.26600
H2774       H  0.92315166  0.04046671  0.50896250     0.21400
H2775       H  0.82847766  0.06773818  0.44288975     0.26700
H2776       H  0.84992574  0.02091989  0.54095243     0.15500
C2777       C  0.84872766  0.73526581  0.05552422    -0.11700
C2778       C  0.86052273  0.74120789  0.08693112     0.14800
C2779       C  0.86980314  0.72664928  0.10955535     0.01700
C2780       C  0.86856734  0.70664350  0.09823129    -0.16100
C2781       C  0.85810945  0.70097409  0.06495925    -0.10900
C2782       C  0.84738646  0.71543059  0.04439022     0.08400
C2783       C  0.86506595  0.76267067  0.09099880     0.09400
S2784       S  0.88439477  0.73277347  0.15160321    -0.25200
H2785       H  0.87682301  0.69563118  0.11418608     0.19700
S2786       S  0.83266270  0.70962435  0.00231547    -0.30900
H2787       H  0.84142648  0.74632790  0.03823480     0.10000
C2788       C  0.88481681  0.77043008  0.07894603     0.03200
C2789       C  0.88723447  0.79089322  0.07471688    -0.13200
C2790       C  0.87012863  0.80392253  0.08065046    -0.08900
C2791       C  0.85040149  0.79602978  0.09330096     0.06700
C2792       C  0.84824241  0.77564269  0.09905639    -0.14000
S2793       S  0.90641324  0.75418935  0.06516818    -0.30900
H2794       H  0.90238460  0.79667741  0.06495932     0.10900
S2795       S  0.82672538  0.81057301  0.09761633    -0.28000
H2796       H  0.83284564  0.76963747  0.10700010     0.08200
H2797       H  0.82660244  0.69048404  0.01343219     0.26600
H2798       H  0.92087373  0.76896239  0.05377419     0.21400
H2799       H  0.82945050  0.81783348  0.06061829     0.26700
H2800       H  0.87470276  0.75115102  0.15891027     0.15500
C2801       C  0.97924059  0.86215538  0.99276400    -0.11700
C2802       C  0.98802416  0.87371955  0.02186274     0.14800
C2803       C  0.97446703  0.88492971  0.04624386     0.01700
C2804       C  0.95249381  0.88431898  0.04094445    -0.16100
C2805       C  0.94363714  0.87236776  0.01227409    -0.10900
C2806       C  0.95736621  0.86150781  0.98745200     0.08400
C2807       C  0.01143414  0.87399224  0.02485583     0.09400
S2808       S  0.98418467  0.89991451  0.08497516    -0.25200
H2809       H  0.94218428  0.89266477  0.06024936     0.19700
S2810       S  0.94809237  0.84724949  0.94735628    -0.30900
H2811       H  0.98960318  0.85376849  0.97360694     0.10000
C2812       C  0.02214866  0.85827789  0.04157514     0.03200
C2813       C  0.04434882  0.85760303  0.03925104    -0.13200
C2814       C  0.05622821  0.87226657  0.02026186    -0.08900
C2815       C  0.04537020  0.88827700  0.00425407     0.06700
C2816       C  0.02317906  0.88906068  0.00713520    -0.14000
S2817       S  0.00746343  0.83896417  0.06555715    -0.30900
H2818       H  0.05252395  0.84544089  0.05198172     0.10900
S2819       S  0.05864055  0.90729269  0.97724867    -0.28000
H2820       H  0.01492426  0.90101591  0.99382741     0.08200
H2821       H  0.93197949  0.86057695  0.93855737     0.26600
H2822       H  0.02507626  0.82810189  0.07694073     0.21400
H2823       H  0.07264583  0.89427084  0.95793138     0.26700
H2824       H  0.00174962  0.88805464  0.09244178     0.15500
C2825       C  0.89047228  0.89007792  0.75660672    -0.11700
C2826       C  0.87814553  0.87586176  0.77542520     0.14800
C2827       C  0.86657377  0.86184069  0.75395350     0.01700
C2828       C  0.86707619  0.86277042  0.71416335    -0.16100
C2829       C  0.87870567  0.87758030  0.69536002    -0.10900
C2830       C  0.89111943  0.89092095  0.71696700     0.08400
C2831       C  0.87869629  0.87546466  0.81736740     0.09400
S2832       S  0.85075922  0.84259128  0.77559323    -0.25200
H2833       H  0.85751270  0.85247825  0.69791593     0.19700
S2834       S  0.90849827  0.90909380  0.69562206    -0.30900
H2835       H  0.89987997  0.90045271  0.77297422     0.10000
C2836       C  0.89262167  0.86287401  0.83578039     0.03200
C2837       C  0.89265913  0.86276261  0.87551095    -0.13200
C2838       C  0.87906011  0.87501682  0.89753329    -0.08900
C2839       C  0.86516577  0.88777901  0.87887676     0.06700
C2840       C  0.86539999  0.88809175  0.83901686    -0.14000
S2841       S  0.91033914  0.84687321  0.80867314    -0.30900
H2842       H  0.90330357  0.85292208  0.88956168     0.10900
S2843       S  0.84592779  0.90299564  0.90395216    -0.28000
H2844       H  0.85468963  0.89779377  0.82471380     0.08200
H2845       H  0.91323373  0.89777644  0.66262649     0.26600
H2846       H  0.92268823  0.84118226  0.83933526     0.21400
H2847       H  0.84069368  0.88881876  0.93148277     0.26700
H2848       H  0.84545818  0.85311429  0.80919819     0.15500
C2849       C  0.85772925  0.86496266  0.33704979    -0.11700
C2850       C  0.86916315  0.87976723  0.31810696     0.14800
C2851       C  0.88038290  0.89412138  0.33932864     0.01700
C2852       C  0.88075072  0.89277340  0.37893742    -0.16100
C2853       C  0.86989589  0.87755447  0.39783026    -0.10900
C2854       C  0.85780767  0.86379150  0.37661377     0.08400
C2855       C  0.86896485  0.87976170  0.27620947     0.09400
S2856       S  0.89524681  0.91394839  0.31756053    -0.25200
H2857       H  0.89020582  0.90322745  0.39497289     0.19700
S2858       S  0.84215435  0.84440354  0.39827940    -0.30900
H2859       H  0.84877454  0.85417344  0.32081944     0.10000
C2860       C  0.88512635  0.87072038  0.25386327     0.03200
C2861       C  0.88420195  0.87125653  0.21401726    -0.13200
C2862       C  0.86737450  0.88067466  0.19639692    -0.08900
C2863       C  0.85075808  0.88885578  0.21913718     0.06700
C2864       C  0.85181204  0.88844624  0.25864992    -0.14000
S2865       S  0.90697987  0.85880320  0.27619924    -0.30900
H2866       H  0.89690070  0.86494973  0.19660965     0.10900
S2867       S  0.82748401  0.89955398  0.19937725    -0.28000
H2868       H  0.83913222  0.89492184  0.27592887     0.08200
H2869       H  0.83742402  0.85494173  0.43219519     0.26600
H2870       H  0.91620834  0.85073444  0.24268269     0.21400
H2871       H  0.82646861  0.88591091  0.16887937     0.26700
H2872       H  0.88241861  0.91588110  0.28581570     0.15500
C2873       C  0.88565242  0.97878014  0.96335435    -0.11700
C2874       C  0.88016745  0.99386133  0.98970832     0.14800
C2875       C  0.87501006  0.98868479  0.02746655     0.01700
C2876       C  0.87425137  0.96874531  0.03749923    -0.16100
C2877       C  0.87914750  0.95345131  0.01113133    -0.10900
C2878       C  0.88560612  0.95875147  0.97377416     0.08400
C2879       C  0.87852250  0.01469965  0.97690919     0.09400
S2880       S  0.86892814  0.00685038  0.06419151    -0.25200
H2881       H  0.86978385  0.96516057  0.06650399     0.19700
S2882       S  0.89273175  0.94071788  0.93761172    -0.30900
H2883       H  0.88973415  0.98262918  0.93432061     0.10000
C2884       C  0.89656473  0.02664124  0.97012178     0.03200
C2885       C  0.89407736  0.04654607  0.95985047    -0.13200
C2886       C  0.87385941  0.05478934  0.95601774    -0.08900
C2887       C  0.85583310  0.04280143  0.96360108     0.06700
C2888       C  0.85836055  0.02298431  0.97358341    -0.14000
S2889       S  0.92272458  0.01659793  0.97531121    -0.30900
H2890       H  0.90791643  0.05560079  0.95388564     0.10900
S2891       S  0.82915025  0.05207666  0.96243766    -0.28000
H2892       H  0.84444742  0.01398534  0.97947572     0.08200
H2893       H  0.90979662  0.93347727  0.95816418     0.26600
H2894       H  0.93401093  0.03372721  0.96481108     0.21400
H2895       H  0.83424783  0.07118214  0.97593561     0.26700
H2896       H  0.88190701  0.02196522  0.04937981     0.15500
C2897       C  0.62722303  0.76992062  0.65416579    -0.11700
C2898       C  0.62726940  0.76273115  0.61664519     0.14800
C2899       C  0.62736307  0.77626683  0.58649423     0.01700
C2900       C  0.62684105  0.79667509  0.59466869    -0.16100
C2901       C  0.62624409  0.80385505  0.63235002    -0.10900
C2902       C  0.62692919  0.79019322  0.66234699     0.08400
C2903       C  0.62543840  0.74104427  0.61090971     0.09400
S2904       S  0.62725150  0.76848661  0.53726699    -0.25200
H2905       H  0.62631052  0.80697324  0.57150770     0.19700
S2906       S  0.62782325  0.79760803  0.71176039    -0.30900
H2907       H  0.62725162  0.75957729  0.67737190     0.10000
C2908       C  0.64337260  0.72874198  0.61009912     0.03200
C2909       C  0.64067779  0.70811464  0.61172286    -0.13200
C2910       C  0.62037829  0.69962783  0.61529769    -0.08900
C2911       C  0.60241674  0.71199265  0.61411865     0.06700
C2912       C  0.60517608  0.73253924  0.61181314    -0.14000
S2913       S  0.66963245  0.73943618  0.60903103    -0.30900
H2914       H  0.65442331  0.69866665  0.61272792     0.10900
S2915       S  0.57589193  0.70179128  0.61605748    -0.28000
H2916       H  0.59152217  0.74215666  0.61250801     0.08200
H2917       H  0.64115911  0.81402401  0.70547118     0.26600
H2918       H  0.68076059  0.72150947  0.61025169     0.21400
H2919       H  0.56504835  0.71972943  0.61219659     0.26700
H2920       H  0.63703199  0.75012635  0.54198168     0.15500
C2921       C  0.52926422  0.88937441  0.69938577    -0.11700
C2922       C  0.51910523  0.88168187  0.73187465     0.14800
C2923       C  0.53127205  0.87175703  0.75874299     0.01700
C2924       C  0.55296685  0.86903242  0.75173818    -0.16100
C2925       C  0.56300500  0.87634692  0.71880983    -0.10900
C2926       C  0.55096533  0.88678118  0.69253623     0.08400
C2927       C  0.49561247  0.88150274  0.73355389     0.09400
S2928       S  0.52004040  0.86212779  0.80230609    -0.25200
H2929       H  0.56214438  0.86124275  0.77231855     0.19700
S2930       S  0.56192115  0.89558921  0.64820953    -0.30900
H2931       H  0.51998906  0.89650733  0.67808653     0.10000
C2932       C  0.48359858  0.89900308  0.73192580     0.03200
C2933       C  0.46160910  0.89766665  0.72720063    -0.13200
C2934       C  0.45147834  0.87918605  0.72416314    -0.08900
C2935       C  0.46331383  0.86180729  0.72921566     0.06700
C2936       C  0.48520347  0.86313040  0.73301285    -0.14000
S2937       S  0.49627542  0.92297719  0.73502905    -0.30900
H2938       H  0.45247717  0.91098875  0.72372080     0.10900
S2939       S  0.45145478  0.83748265  0.73073883    -0.28000
H2940       H  0.49429382  0.84963738  0.73455610     0.08200
H2941       H  0.57420419  0.87859938  0.64082153     0.26600
H2942       H  0.47788928  0.93431970  0.73104380     0.21400
H2943       H  0.43189405  0.84386264  0.74635047     0.26700
H2944       H  0.50339919  0.87581618  0.80566505     0.15500
C2945       C  0.61390275  0.97950252  0.74355303    -0.11700
C2946       C  0.63047203  0.99268084  0.73462944     0.14800
C2947       C  0.64748077  0.98591375  0.71118718     0.01700
C2948       C  0.64747277  0.96638805  0.69709022    -0.16100
C2949       C  0.63095199  0.95303186  0.70595754    -0.10900
C2950       C  0.61369327  0.96002141  0.72897054     0.08400
C2951       C  0.62950065  0.01337801  0.74992781     0.09400
S2952       S  0.66977159  0.00139938  0.69820772    -0.25200
H2953       H  0.66077887  0.96153686  0.67938554     0.19700
S2954       S  0.59028161  0.94544686  0.73895840    -0.30900
H2955       H  0.60066884  0.98464655  0.76114588     0.10000
C2956       C  0.62475992  0.02955105  0.72682056     0.03200
C2957       C  0.62487414  0.04891231  0.74238169    -0.13200
C2958       C  0.62928500  0.05251521  0.78092704    -0.08900
C2959       C  0.63306890  0.03602827  0.80426225     0.06700
C2960       C  0.63342916  0.01685028  0.78845997    -0.14000
S2961       S  0.61818223  0.02545498  0.67766477    -0.30900
H2962       H  0.62171955  0.06131031  0.72434007     0.10900
S2963       S  0.63650352  0.03819542  0.85485881    -0.28000
H2964       H  0.63661940  0.00443825  0.80651035     0.08200
H2965       H  0.58850310  0.93829080  0.70137653     0.26600
H2966       H  0.61424840  0.04533423  0.66924835     0.21400
H2967       H  0.62048824  0.05239963  0.86052896     0.26700
H2968       H  0.66934780  0.01333580  0.73126499     0.15500
C2969       C  0.77387458  0.88787187  0.62879966    -0.11700
C2970       C  0.76300016  0.87800394  0.59975062     0.14800
C2971       C  0.77462776  0.86979482  0.56855310     0.01700
C2972       C  0.79672036  0.87198949  0.56677715    -0.16100
C2973       C  0.80753132  0.88219043  0.59554299    -0.10900
C2974       C  0.79598603  0.88987844  0.62724836     0.08400
C2975       C  0.73949784  0.87763265  0.60208533     0.09400
S2976       S  0.76225502  0.85645614  0.53014397    -0.25200
H2977       H  0.80552869  0.86588117  0.54255925     0.19700
S2978       S  0.80938238  0.90154445  0.66660734    -0.30900
H2979       H  0.76490655  0.89415075  0.65262470     0.10000
C2980       C  0.72835753  0.86704194  0.63051081     0.03200
C2981       C  0.70620331  0.86873883  0.63395139    -0.13200
C2982       C  0.69500995  0.88079387  0.60940332    -0.08900
C2983       C  0.70612793  0.89027697  0.57939898     0.06700
C2984       C  0.72819214  0.88891579  0.57651483    -0.14000
S2985       S  0.74239665  0.85138114  0.66232739    -0.30900
H2986       H  0.69765138  0.86118650  0.65649945     0.10900
S2987       S  0.69295471  0.90385726  0.54326249    -0.28000
H2988       H  0.73665023  0.89677192  0.55420705     0.08200
H2989       H  0.79141946  0.90393399  0.69059499     0.26600
H2990       H  0.72446267  0.84419301  0.68224841     0.21400
H2991       H  0.67518351  0.89123070  0.54203075     0.26700
H2992       H  0.74472188  0.84955122  0.55150608     0.15500
C2993       C  0.63250850  0.76899799  0.14846949    -0.11700
C2994       C  0.62818949  0.76192467  0.11177406     0.14800
C2995       C  0.62486908  0.77570329  0.08272041     0.01700
C2996       C  0.62488854  0.79611209  0.09144542    -0.16100
C2997       C  0.62829547  0.80306050  0.12864214    -0.10900
C2998       C  0.63277967  0.78927961  0.15706759     0.08400
C2999       C  0.62540034  0.74017455  0.10621937     0.09400
S3000       S  0.61985702  0.76811202  0.03443392    -0.25200
H3001       H  0.62140691  0.80655384  0.06945863     0.19700
S3002       S  0.63848648  0.79672395  0.20523083    -0.30900
H3003       H  0.63518404  0.75857285  0.17089249     0.10000
C3004       C  0.64268912  0.72708686  0.10698570     0.03200
C3005       C  0.63898890  0.70656308  0.10845715    -0.13200
C3006       C  0.61829751  0.69882411  0.10960653    -0.08900
C3007       C  0.60110462  0.71190493  0.10557853     0.06700
C3008       C  0.60481829  0.73236649  0.10428121    -0.14000
S3009       S  0.66944062  0.73659689  0.10744022    -0.30900
H3010       H  0.65219895  0.69660537  0.11125310     0.10900
S3011       S  0.57406950  0.70342077  0.10238444    -0.28000
H3012       H  0.59148956  0.74233367  0.10304621     0.08200
H3013       H  0.64842860  0.81470293  0.19565960     0.26600
H3014       H  0.67964167  0.71815430  0.10716596     0.21400
H3015       H  0.57906227  0.68479867  0.08625177     0.26700
H3016       H  0.63086459  0.75012744  0.03550327     0.15500
C3017       C  0.52032511  0.89228195  0.19851795    -0.11700
C3018       C  0.50811522  0.87490059  0.20123022     0.14800
C3019       C  0.51868666  0.85656245  0.20165680     0.01700
C3020       C  0.54078833  0.85597919  0.19884278    -0.16100
C3021       C  0.55329105  0.87331673  0.19710335    -0.10900
C3022       C  0.54259534  0.89178068  0.19682966     0.08400
C3023       C  0.48447395  0.87604568  0.20216189     0.09400
S3024       S  0.50501590  0.83324292  0.20734673    -0.25200
H3025       H  0.54823715  0.84160366  0.19928919     0.19700
S3026       S  0.55603206  0.91531943  0.19506726    -0.30900
H3027       H  0.51240591  0.90643171  0.19759912     0.10000
C3028       C  0.47305130  0.88625057  0.23140419     0.03200
C3029       C  0.45076453  0.88531805  0.23261197    -0.13200
C3030       C  0.43962648  0.87417024  0.20557614    -0.08900
C3031       C  0.45103448  0.86475220  0.17543029     0.06700
C3032       C  0.47317177  0.86587084  0.17396850    -0.14000
S3033       S  0.48672118  0.89925667  0.26884329    -0.30900
H3034       H  0.44200196  0.89244920  0.25578580     0.10900
S3035       S  0.43829465  0.85106855  0.13787965    -0.28000
H3036       H  0.48173865  0.85837554  0.15095170     0.08200
H3037       H  0.56761441  0.91038544  0.16164182     0.26600
H3038       H  0.46862388  0.90703011  0.28761047     0.21400
H3039       H  0.41975581  0.86249453  0.13815398     0.26700
H3040       H  0.48882908  0.84069408  0.23159520     0.15500
C3041       C  0.62175173  0.86422814  0.95513195    -0.11700
C3042       C  0.63556322  0.87685870  0.93505869     0.14800
C3043       C  0.64741800  0.89112967  0.95506041     0.01700
C3044       C  0.64482326  0.89286630  0.99442416    -0.16100
C3045       C  0.63079892  0.88047653  0.01473460    -0.10900
C3046       C  0.61913564  0.86594303  0.99468771     0.08400
C3047       C  0.63584282  0.87608463  0.89311007     0.09400
S3048       S  0.66607593  0.90756683  0.93194925    -0.25200
H3049       H  0.65416366  0.90384911  0.00943069     0.19700
S3050       S  0.59984413  0.85000841  0.01736778    -0.30900
H3051       H  0.61240140  0.85343034  0.93968018     0.10000
C3052       C  0.64512463  0.86025452  0.87247901     0.03200
C3053       C  0.64419797  0.85988814  0.83271631    -0.13200
C3054       C  0.63393419  0.87494097  0.81314622    -0.08900
C3055       C  0.62472360  0.89083060  0.83419805     0.06700
C3056       C  0.62610565  0.89137189  0.87375848    -0.14000
S3057       S  0.65828788  0.84067221  0.89680923    -0.30900
H3058       H  0.65125476  0.84767564  0.81677552     0.10900
S3059       S  0.60945789  0.90995599  0.81289847    -0.28000
H3060       H  0.61879214  0.90344255  0.88980418     0.08200
H3061       H  0.59217325  0.86455573  0.04314209     0.26600
H3062       H  0.66333917  0.82907759  0.86433605     0.21400
H3063       H  0.59789014  0.89681168  0.78979985     0.26700
H3064       H  0.67189529  0.89439605  0.90222754     0.15500
C3065       C  0.60268717  0.86814076  0.37618688    -0.11700
C3066       C  0.61912405  0.87900826  0.39269567     0.14800
C3067       C  0.63419473  0.88864302  0.36900473     0.01700
C3068       C  0.63221858  0.88752563  0.32947523    -0.16100
C3069       C  0.61597177  0.87634382  0.31287504    -0.10900
C3070       C  0.60083668  0.86681729  0.33672446     0.08400
C3071       C  0.61996949  0.88008805  0.43467842     0.09400
S3072       S  0.65669525  0.90196117  0.38733799    -0.25200
H3073       H  0.64402882  0.89469333  0.31150870     0.19700
S3074       S  0.57841647  0.85324155  0.31875022    -0.30900
H3075       H  0.59102243  0.86084606  0.39427048     0.10000
C3076       C  0.61566765  0.89775989  0.45501752     0.03200
C3077       C  0.61767295  0.89826758  0.49459921    -0.13200
C3078       C  0.62354694  0.88136493  0.51467220    -0.08900
C3079       C  0.62693727  0.86343418  0.49402862     0.06700
C3080       C  0.62519684  0.86305000  0.45444409    -0.14000
S3081       S  0.60734730  0.91959760  0.43062579    -0.30900
H3082       H  0.61467788  0.91199325  0.51000145     0.10900
S3083       S  0.63485447  0.84087863  0.51587370    -0.28000
H3084       H  0.62829229  0.84939768  0.43876374     0.08200
H3085       H  0.57528708  0.86564128  0.28770285     0.26600
H3086       H  0.60476622  0.93186829  0.46304416     0.21400
H3087       H  0.61550692  0.83897625  0.53620318     0.26700
H3088       H  0.65888812  0.89057205  0.42003699     0.15500
C3089       C  0.61651354  0.02769631  0.22450060    -0.11700
C3090       C  0.61762054  0.01190413  0.24975229     0.14800
C3091       C  0.61968524  0.01599801  0.28889678     0.01700
C3092       C  0.62140671  0.03561125  0.30174282    -0.16100
C3093       C  0.62063209  0.05152877  0.27663084    -0.10900
C3094       C  0.61807164  0.04741378  0.23742962     0.08400
C3095       C  0.61905533  0.99139829  0.23432574     0.09400
S3096       S  0.62092781  0.99684281  0.32382621    -0.25200
H3097       H  0.62322811  0.03847800  0.33187941     0.19700
S3098       S  0.61822226  0.06639106  0.20217114    -0.30900
H3099       H  0.61524000  0.02460329  0.19432985     0.10000
C3100       C  0.60100206  0.97934787  0.22971486     0.03200
C3101       C  0.60340481  0.95972090  0.21657595    -0.13200
C3102       C  0.62354999  0.95183791  0.20800954    -0.08900
C3103       C  0.64164200  0.96392071  0.21365357     0.06700
C3104       C  0.63915977  0.98355683  0.22614343    -0.14000
S3105       S  0.57496398  0.98887359  0.24120660    -0.30900
H3106       H  0.58949881  0.95061082  0.21218209     0.10900
S3107       S  0.66835065  0.95495697  0.20750156    -0.28000
H3108       H  0.65307785  0.99269355  0.23050983     0.08200
H3109       H  0.63380937  0.07813035  0.21954103     0.26600
H3110       H  0.56437687  0.97050962  0.24010481     0.21400
H3111       H  0.66382359  0.93594993  0.22132022     0.26700
H3112       H  0.60757243  0.98330440  0.30535799     0.15500
C3113       C  0.77135859  0.86706579  0.08102271    -0.11700
C3114       C  0.76080143  0.88127590  0.10379526     0.14800
C3115       C  0.77251553  0.89701272  0.11985365     0.01700
C3116       C  0.79422132  0.89855550  0.11194606    -0.16100
C3117       C  0.80499221  0.88452756  0.08883137    -0.10900
C3118       C  0.79319397  0.86864281  0.07297808     0.08400
C3119       C  0.73734725  0.88087662  0.10681246     0.09400
S3120       S  0.76063420  0.91585473  0.15024163    -0.25200
H3121       H  0.80286004  0.91072999  0.12479279     0.19700
S3122       S  0.80450265  0.85093872  0.03979111    -0.30900
H3123       H  0.76234071  0.85519312  0.06797921     0.10000
C3124       C  0.72534516  0.89446661  0.08666646     0.03200
C3125       C  0.70348924  0.89570396  0.09374418    -0.13200
C3126       C  0.69302345  0.88322771  0.11984581    -0.08900
C3127       C  0.70500377  0.86869064  0.13822158     0.06700
C3128       C  0.72700754  0.86772313  0.13157427    -0.14000
S3129       S  0.73789640  0.91005038  0.05137314    -0.30900
H3130       H  0.69442306  0.90633568  0.07833790     0.10900
S3131       S  0.69344200  0.85151857  0.17142146    -0.28000
H3132       H  0.73623043  0.85708865  0.14673290     0.08200
H3133       H  0.81699933  0.86502097  0.02056854     0.26600
H3134       H  0.71935125  0.91909175  0.03900612     0.21400
H3135       H  0.68096387  0.86592009  0.19037723     0.26700
H3136       H  0.74442154  0.90385173  0.16550782     0.15500
loop_ 
_geom_bond_atom_site_label_1 
_geom_bond_atom_site_label_2 
_geom_bond_distance 
_geom_bond_site_symmetry_2 
_ccdc_geom_bond_type 
O1           Ni7   1.933       .  S
O1           C22   1.271       .  A
O2          Ni25   1.925       .  S
O2           C11   1.271       .  A
O3           Ni7   1.908       .  S
O3          Ni25   1.914       .  S
O3          Ni19   1.910       .  S
O3           H26   0.967       .  S
C4           O21   1.275       .  A
C4           O13   1.275       .  A
C4         C3069   1.479       .  S
O5          Ni24   1.925       .  S
O5           C11   1.269       .  A
O6          Ni24   1.905       .  S
O6            C8   1.270       .  A
Ni7          O10   1.916       .  S
Ni7          O12   1.906       .  S
C8           O18   1.273       .  A
C8         C3021   1.505       .  S
O9          Ni25   1.919       .  S
O9           C15   1.277       .  A
O10          C15   1.276       .  A
C11        C2997   1.482       .  S
O12          C14   1.270       .  A
O13         Ni24   1.922       .  S
C14          O20   1.273       .  A
C14        C3126   1.490       .  S
C15        C3045   1.478       .  S
H16          O17   0.966       .  S
O17         Ni25   1.917       .  S
O17         Ni19   1.913       .  S
O17         Ni24   1.909       .  S
O18         Ni19   1.941       .  S
Ni19         O23   1.914       .  S
Ni19         O21   1.917       .  S
O20         Ni25   1.934       .  S
C22          O23   1.268       .  A
C22        C3102   1.485       .  S
O27         Ni33   1.937       .  S
O27          C48   1.275       .  A
O28         Ni51   1.926       .  S
O28          C37   1.270       .  A
O29         Ni33   1.904       .  S
O29         Ni51   1.912       .  S
O29         Ni45   1.916       .  S
O29          H52   0.964       .  S
C30          O47   1.280       .  A
C30          O39   1.275       .  A
C30        C3054   1.480       .  S
O31         Ni50   1.914       .  S
O31          C37   1.267       .  A
O32         Ni50   1.908       .  S
O32          C34   1.268       .  A
Ni33         O36   1.924       .  S
Ni33         O38   1.907       .  S
C34          O44   1.269       .  A
C34        C2925   1.476       .  S
O35         Ni51   1.919       .  S
O35          C41   1.276       .  A
O36          C41   1.277       .  A
C37        C2901   1.481       .  S
O38          C40   1.271       .  A
O39         Ni50   1.911       .  S
C40          O46   1.274       .  A
C40        C2982   1.480       .  S
C41        C3078   1.490       .  S
H42          O43   0.966       .  S
O43         Ni51   1.919       .  S
O43         Ni45   1.902       .  S
O43         Ni50   1.909       .  S
O44         Ni45   1.922       .  S
Ni45         O49   1.913       .  S
Ni45         O47   1.928       .  S
O46         Ni51   1.935       .  S
C48          O49   1.269       .  A
C48        C2949   1.498       .  S
O53         Ni59   1.931       .  S
O53          C74   1.273       .  A
O54         Ni77   1.921       .  S
O54          C63   1.268       .  A
O55         Ni59   1.906       .  S
O55         Ni77   1.916       .  S
O55         Ni71   1.917       .  S
O55          H78   0.966       .  S
C56          O73   1.279       .  A
C56          O65   1.275       .  A
C56        C2838   1.482       .  S
O57         Ni76   1.922   1_554  S
O57          C63   1.269       .  A
O58         Ni76   1.907   1_554  S
O58          C60   1.268       .  A
Ni59         O62   1.923       .  S
Ni59         O64   1.906       .  S
C60          O70   1.272       .  A
C60        C2805   1.485       .  S
O61         Ni77   1.919       .  S
O61          C67   1.275       .  A
O62          C67   1.276       .  A
C63        C2790   1.491       .  S
O64          C66   1.270       .  A
O65         Ni76   1.913       .  S
C66          O72   1.274       .  A
C66        C3117   1.492       .  S
C67        C2862   1.476       .  S
H68          O69   0.965       .  S
O69         Ni77   1.912       .  S
O69         Ni71   1.913       .  S
O69         Ni76   1.908   1_554  S
O70         Ni71   1.934       .  S
Ni71         O75   1.923       .  S
Ni71         O73   1.931   1_554  S
O72         Ni77   1.938       .  S
C74          O75   1.270       .  A
C74        C2877   1.498       .  S
O79         Ni85   1.938       .  S
O79         C100   1.273       .  A
O80        Ni103   1.939       .  S
O80          C89   1.274       .  A
O81         Ni85   1.914       .  S
O81        Ni103   1.930       .  S
O81         Ni97   1.916       .  S
O81         H104   0.966       .  S
C82          O99   1.277       .  A
C82          O91   1.274       .  A
C82        C2853   1.471       .  S
O83        Ni102   1.926       .  S
O83          C89   1.269       .  A
O84        Ni102   1.907       .  S
O84          C86   1.270       .  A
Ni85         O88   1.916       .  S
Ni85         O90   1.910       .  S
C86          O96   1.272       .  A
C86        C2733   1.480       .  S
O87        Ni103   1.926       .  S
O87          C93   1.277       .  A
O88          C93   1.274       .  A
C89        C2718   1.491       .  S
O90          C92   1.271       .  A
O91        Ni102   1.915       .  S
C92          O98   1.272       .  A
C92        C2973   1.479       .  S
C93        C2829   1.479       .  S
H94          O95   0.966       .  S
O95        Ni103   1.913       .  S
O95         Ni97   1.922       .  S
O95        Ni102   1.912       .  S
O96         Ni97   1.929       .  S
Ni97        O101   1.936       .  S
Ni97         O99   1.919       .  S
O98        Ni103   1.927       .  S
C100        O101   1.274       .  A
C100       C2757   1.514       .  S
O105       Ni111   1.944       .  S
O105        C126   1.274       .  A
O106       Ni129   1.932       .  S
O106        C115   1.274       .  A
O107       Ni111   1.920       .  S
O107       Ni129   1.930       .  S
O107       Ni123   1.917       .  S
O107        H130   0.966       .  S
C108        O125   1.267       .  A
C108        O117   1.272       .  A
C108       C2637   1.495       .  S
O109       Ni128   1.926       .  S
O109        C115   1.271       .  A
O110       Ni128   1.904       .  S
O110        C112   1.271       .  A
Ni111       O114   1.931       .  S
Ni111       O116   1.900       .  S
C112        O122   1.275       .  A
C112       C2589   1.489       .  S
O113       Ni129   1.916       .  S
O113        C119   1.272       .  A
O114        C119   1.274       .  A
C115       C2613   1.492       .  S
O116        C118   1.271       .  A
O117       Ni128   1.927       .  S
C118        O124   1.279       .  A
C118       C2685   1.490       .  S
C119       C2661   1.488       .  S
H120        O121   0.965       .  S
O121       Ni129   1.921       .  S
O121       Ni123   1.919       .  S
O121       Ni128   1.924       .  S
O122       Ni123   1.939       .  S
Ni123       O127   1.921       .  S
Ni123       O125   1.908       .  S
O124       Ni129   1.953       .  S
C126        O127   1.268       .  A
C126       C2766   1.504       .  S
O131       Ni137   1.929       .  S
O131        C152   1.272       .  A
O132       Ni155   1.905       .  S
O132        C141   1.265       .  A
O133       Ni137   1.909       .  S
O133       Ni155   1.906       .  S
O133       Ni149   1.916       .  S
O133        H156   0.966       .  S
C134        O151   1.282   1_554  A
C134        O143   1.277       .  A
C134       C2670   1.489       .  S
O135       Ni154   1.937       .  S
O135        C141   1.273       .  A
O136       Ni154   1.905       .  S
O136        C138   1.269       .  A
Ni137       O140   1.922       .  S
Ni137       O142   1.913       .  S
C138        O148   1.273       .  A
C138       C2517   1.486       .  S
O139       Ni155   1.919       .  S
O139        C145   1.276       .  A
O140        C145   1.276       .  A
C141       C2541   1.475       .  S
O142        C144   1.269       .  A
O143       Ni154   1.925   1_554  S
C144        O150   1.268       .  A
C144       C2565   1.477       .  S
C145       C2646   1.477       .  S
H146        O147   0.966       .  S
O147       Ni155   1.907       .  S
O147       Ni149   1.909       .  S
O147       Ni154   1.906       .  S
O148       Ni149   1.933       .  S
Ni149       O153   1.927       .  S
Ni149       O151   1.928       .  S
O150       Ni155   1.917       .  S
C152        O153   1.273       .  A
C152       C2886   1.489       .  S
O157       Ni163   1.931       .  S
O157        C178   1.273       .  A
O158       Ni181   1.929       .  S
O158        C167   1.271       .  A
O159       Ni163   1.909       .  S
O159       Ni181   1.918       .  S
O159       Ni175   1.920       .  S
O159        H182   0.967       .  S
C160        O177   1.280       .  A
C160        O169   1.277       .  A
C160       C2493   1.476       .  S
O161       Ni180   1.924       .  S
O161        C167   1.268       .  A
O162       Ni180   1.900       .  S
O162        C164   1.266       .  A
Ni163       O166   1.924       .  S
Ni163       O168   1.902       .  S
C164        O174   1.272       .  A
C164       C2421   1.483       .  S
O165       Ni181   1.913       .  S
O165        C171   1.274       .  A
O166        C171   1.275       .  A
C167       C2445   1.482       .  S
O168        C170   1.270       .  A
O169       Ni180   1.920       .  S
C170        O176   1.277       .  A
C170       C2694   1.490       .  S
C171       C2469   1.473       .  S
H172        O173   0.965       .  S
O173       Ni181   1.907       .  S
O173       Ni175   1.904       .  S
O173       Ni180   1.901       .  S
O174       Ni175   1.931       .  S
Ni175       O179   1.917       .  S
Ni175       O177   1.929       .  S
O176       Ni181   1.945       .  S
C178        O179   1.270       .  A
C178       C3093   1.487       .  S
O183       Ni189   1.934       .  S
O183        C204   1.271       .  A
O184       Ni207   1.931       .  S
O184        C193   1.271       .  A
O185       Ni189   1.902       .  S
O185       Ni207   1.918       .  S
O185       Ni201   1.914       .  S
O185        H208   0.966       .  S
C186        O203   1.277       .  A
C186        O195   1.275       .  A
C186       C2478   1.478       .  S
O187       Ni206   1.918       .  S
O187        C193   1.268       .  A
O188       Ni206   1.904       .  S
O188        C190   1.268       .  A
Ni189       O192   1.919       .  S
Ni189       O194   1.901       .  S
C190        O200   1.270       .  A
C190       C2373   1.473       .  S
O191       Ni207   1.927       .  S
O191        C197   1.279       .  A
O192        C197   1.278       .  A
C193       C2397   1.482       .  S
O194        C196   1.268       .  A
O195       Ni206   1.916       .  S
C196        O202   1.272       .  A
C196       C2574   1.476       .  S
C197       C2502   1.494       .  S
H198        O199   0.966       .  S
O199       Ni207   1.920       .  S
O199       Ni201   1.910       .  S
O199       Ni206   1.909       .  S
O200       Ni201   1.925       .  S
Ni201       O205   1.924       .  S
Ni201       O203   1.919       .  S
O202       Ni207   1.927       .  S
C204        O205   1.271       .  A
C204       C2958   1.497       .  S
O209       Ni215   1.926       .  S
O209        C230   1.268       .  A
O210       Ni233   1.931       .  S
O210        C219   1.273       .  A
O211       Ni215   1.912       .  S
O211       Ni233   1.917       .  S
O211       Ni227   1.912       .  S
O211        H234   0.966       .  S
C212        O229   1.279       .  A
C212        O221   1.276       .  A
C212       C2310   1.483       .  S
O213       Ni232   1.937       .  S
O213        C219   1.274       .  A
O214       Ni232   1.911       .  S
O214        C216   1.271       .  A
Ni215       O218   1.920   1_554  S
Ni215       O220   1.907       .  S
C216        O226   1.274       .  A
C216       C2358   1.486       .  S
O217       Ni233   1.920   1_556  S
O217        C223   1.278       .  A
O218        C223   1.276       .  A
C219       C2334   1.501       .  S
O220        C222   1.269       .  A
O221       Ni232   1.923       .  S
C222        O228   1.273       .  A
C222       C2814   1.489       .  S
C223       C2277   1.479       .  S
H224        O225   0.966       .  S
O225       Ni233   1.916       .  S
O225       Ni227   1.922       .  S
O225       Ni232   1.908       .  S
O226       Ni227   1.931       .  S
Ni227       O231   1.941       .  S
Ni227       O229   1.921       .  S
O228       Ni233   1.935       .  S
C230        O231   1.274       .  A
C230       C2262   1.492       .  S
O235       Ni241   1.917       .  S
O235        C256   1.268       .  A
O236       Ni259   1.918       .  S
O236        C245   1.271       .  A
O237       Ni241   1.905       .  S
O237       Ni259   1.907       .  S
O237       Ni253   1.910       .  S
O237        H260   0.965       .  S
C238        O255   1.272       .  A
C238        O247   1.275       .  A
C238       C2286   1.487       .  S
O239       Ni258   1.934       .  S
O239        C245   1.273       .  A
O240       Ni258   1.906       .  S
O240        C242   1.270       .  A
Ni241       O244   1.912       .  S
Ni241       O246   1.909       .  S
C242        O252   1.275       .  A
C242       C2229   1.481       .  S
O243       Ni259   1.928       .  S
O243        C249   1.280       .  A
O244        C249   1.275       .  A
C245       C2214   1.489       .  S
O246        C248   1.270       .  A
O247       Ni258   1.924       .  S
C248        O254   1.270       .  A
C248       C2742   1.487       .  S
C249       C2301   1.472       .  S
H250        O251   0.966       .  S
O251       Ni259   1.922       .  S
O251       Ni253   1.927       .  S
O251       Ni258   1.911       .  S
O252       Ni253   1.932       .  S
Ni253       O257   1.940       .  S
Ni253       O255   1.909       .  S
O254       Ni259   1.926       .  S
C256        O257   1.272       .  A
C256       C2181   1.499       .  S
O261       Ni267   1.929       .  S
O261        C282   1.271       .  A
O262       Ni285   1.919       .  S
O262        C271   1.269       .  A
O263       Ni267   1.915       .  S
O263       Ni285   1.922       .  S
O263       Ni279   1.920       .  S
O263        H286   0.966       .  S
C264        O281   1.278       .  A
C264        O273   1.276       .  A
C264       C2109   1.479       .  S
O265       Ni284   1.926       .  S
O265        C271   1.271       .  A
O266       Ni284   1.911       .  S
O266        C268   1.270       .  A
Ni267       O270   1.929       .  S
Ni267       O272   1.904       .  S
C268        O278   1.271       .  A
C268       C2349   1.485       .  S
O269       Ni285   1.913       .  S
O269        C275   1.273       .  A
O270        C275   1.274       .  A
C271       C2166   1.488       .  S
O272        C274   1.268       .  A
O273       Ni284   1.915       .  S
C274        O280   1.274       .  A
C274       C3030   1.481       .  S
C275       C2142   1.491       .  S
H276        O277   0.966       .  S
O277       Ni285   1.910       .  S
O277       Ni279   1.907       .  S
O277       Ni284   1.908       .  S
O278       Ni279   1.925       .  S
Ni279       O283   1.919       .  S
Ni279       O281   1.923       .  S
O280       Ni285   1.941       .  S
C282        O283   1.269       .  A
C282       C2094   1.484       .  S
O287       Ni293   1.928       .  S
O287        C308   1.272       .  A
O288       Ni311   1.901       .  S
O288        C297   1.268       .  A
O289       Ni293   1.908       .  S
O289       Ni311   1.905       .  S
O289       Ni305   1.915       .  S
O289        H312   0.966       .  S
C290        O307   1.279       .  A
C290        O299   1.278       .  A
C290       C2118   1.479       .  S
O291       Ni310   1.928       .  S
O291        C297   1.272       .  A
O292       Ni310   1.912       .  S
O292        C294   1.271       .  A
Ni293       O296   1.926       .  S
Ni293       O298   1.916       .  S
C294        O304   1.278       .  A
C294       C2061   1.512       .  S
O295       Ni311   1.924       .  S
O295        C301   1.277       .  A
O296        C301   1.277       .  A
C297       C2238   1.478       .  S
O298        C300   1.270       .  A
O299       Ni310   1.920       .  S
C300        O306   1.274       .  A
C300       C2037   1.514       .  S
C301       C2133   1.486       .  S
H302        O303   0.966       .  S
O303       Ni311   1.910       .  S
O303       Ni305   1.898       .  S
O303       Ni310   1.898       .  S
O304       Ni305   1.952       .  S
Ni305       O309   1.908       .  S
Ni305       O307   1.920       .  S
O306       Ni311   1.947       .  S
C308        O309   1.268       .  A
C308       C2934   1.475       .  S
O313       Ni319   1.928       .  S
O313        C334   1.270       .  A
O314       Ni337   1.919       .  S
O314        C323   1.270       .  A
O315       Ni319   1.910       .  S
O315       Ni337   1.913       .  S
O315       Ni331   1.916       .  S
O315        H338   0.966       .  S
C316        O333   1.277       .  A
C316        O325   1.276       .  A
C316       C1965   1.473       .  S
O317       Ni336   1.922       .  S
O317        C323   1.270       .  A
O318       Ni336   1.904       .  S
O318        C320   1.268       .  A
Ni319       O322   1.925       .  S
Ni319       O324   1.903       .  S
C320        O330   1.270       .  A
C320       C2013   1.480       .  S
O321       Ni337   1.927       .  S
O321        C327   1.279       .  A
O322        C327   1.277       .  A
C323       C2157   1.485       .  S
O324        C326   1.267       .  A
O325       Ni336   1.921       .  S
C326        O332   1.271       .  A
C326       C2430   1.475       .  S
C327       C1989   1.489       .  S
H328        O329   0.966       .  S
O329       Ni337   1.916       .  S
O329       Ni331   1.905       .  S
O329       Ni336   1.909       .  S
O330       Ni331   1.925       .  S
Ni331       O335   1.913       .  S
Ni331       O333   1.920       .  S
O332       Ni337   1.927       .  S
C334        O335   1.268       .  A
C334       C1941   1.484       .  S
O339       Ni345   1.918       .  S
O339        C360   1.268       .  A
O340       Ni363   1.925       .  S
O340        C349   1.271       .  A
O341       Ni345   1.904       .  S
O341       Ni363   1.911       .  S
O341       Ni357   1.914       .  S
O341        H364   0.967       .  S
C342        O359   1.279       .  A
C342        O351   1.278       .  A
C342       C1998   1.481       .  S
O343       Ni362   1.947       .  S
O343        C349   1.275       .  A
O344       Ni362   1.913       .  S
O344        C346   1.271       .  A
Ni345       O348   1.915       .  S
Ni345       O350   1.897       .  S
C346        O356   1.274       .  A
C346       C1926   1.488       .  S
O347       Ni363   1.924       .  S
O347        C353   1.277       .  A
O348        C353   1.277       .  A
C349       C2070   1.491       .  S
O350        C352   1.266       .  A
O351       Ni362   1.928       .  S
C352        O358   1.273       .  A
C352       C2382   1.485       .  S
C353       C1974   1.492       .  S
H354        O355   0.966       .  S
O355       Ni363   1.914       .  S
O355       Ni357   1.925       .  S
O355       Ni362   1.909       .  S
O356       Ni357   1.933       .  S
Ni357       O361   1.942       .  S
Ni357       O359   1.926       .  S
O358       Ni363   1.938       .  S
C360        O361   1.275       .  A
C360       C1893   1.498       .  S
O365       Ni371   1.918       .  S
O365        C386   1.267       .  A
O366       Ni389   1.923       .  S
O366        C375   1.271       .  A
O367       Ni371   1.906       .  S
O367       Ni389   1.913       .  S
O367       Ni383   1.918       .  S
O367        H390   0.966       .  S
C368        O385   1.278       .  A
C368        O377   1.278       .  A
C368       C1869   1.485       .  S
O369       Ni388   1.935       .  S
O369        C375   1.273       .  A
O370       Ni388   1.907       .  S
O370        C372   1.270       .  A
Ni371       O374   1.916       .  S
Ni371       O376   1.905       .  S
C372        O382   1.271       .  A
C372       C2022   1.487       .  S
O373       Ni389   1.926       .  S
O373        C379   1.278       .  A
O374        C379   1.277       .  A
C375       C2205   1.497       .  S
O376        C378   1.269       .  A
O377       Ni388   1.924       .  S
C378        O384   1.272       .  A
C378       C2598   1.489       .  S
C379       C1854   1.486       .  S
H380        O381   0.964       .  S
O381       Ni389   1.912       .  S
O381       Ni383   1.922       .  S
O381       Ni388   1.907       .  S
O382       Ni383   1.930       .  S
Ni383       O387   1.943       .  S
Ni383       O385   1.921       .  S
O384       Ni389   1.935       .  S
C386        O387   1.273       .  A
C386       C1830   1.495       .  S
O391       Ni397   1.917       .  S
O391        C412   1.267       .  A
O392       Ni415   1.923       .  S
O392        C401   1.273       .  A
O393       Ni397   1.905       .  S
O393       Ni415   1.913       .  S
O393       Ni409   1.914       .  S
O393        H416   0.966       .  S
C394        O411   1.274       .  A
C394        O403   1.277       .  A
C394       C1845   1.479       .  S
O395       Ni414   1.941       .  S
O395        C401   1.276       .  A
O396       Ni414   1.905       .  S
O396        C398   1.270       .  A
Ni397       O400   1.910   1_556  S
Ni397       O402   1.904       .  S
C398        O408   1.275       .  A
C398       C1917   1.480       .  S
O399       Ni415   1.940   1_554  S
O399        C405   1.281       .  A
O400        C405   1.275       .  A
C401       C2325   1.504       .  S
O402        C404   1.268       .  A
O403       Ni414   1.931       .  S
C404        O410   1.273       .  A
C404       C2526   1.488       .  S
C405       C1878   1.489       .  S
H406        O407   0.964       .  S
O407       Ni415   1.918       .  S
O407       Ni409   1.923       .  S
O407       Ni414   1.904       .  S
O408       Ni409   1.940       .  S
Ni409       O413   1.939       .  S
Ni409       O411   1.911       .  S
O410       Ni415   1.937       .  S
C412        O413   1.272       .  A
C412       C1797   1.497       .  S
O417       Ni423   1.929       .  S
O417        C438   1.272       .  A
O418       Ni441   1.908       .  S
O418        C427   1.268       .  A
O419       Ni423   1.905       .  S
O419       Ni441   1.903       .  S
O419       Ni435   1.916       .  S
O419        H442   0.966       .  S
C420        O437   1.279       .  A
C420        O429   1.279       .  A
C420       C1701   1.480       .  S
O421       Ni440   1.918       .  S
O421        C427   1.270       .  A
O422       Ni440   1.914       .  S
O422        C424   1.270       .  A
Ni423       O426   1.924       .  S
Ni423       O428   1.921       .  S
C424        O434   1.275       .  A
C424       C1782   1.514       .  S
O425       Ni441   1.926       .  S
O425        C431   1.278       .  A
O426        C431   1.278       .  A
C427       C1749   1.474       .  S
O428        C430   1.270       .  A
O429       Ni440   1.918       .  S
C430        O436   1.275       .  A
C430       C2622   1.507       .  S
C431       C1725   1.480       .  S
H432        O433   0.966       .  S
O433       Ni441   1.916       .  S
O433       Ni435   1.895       .  S
O433       Ni440   1.896       .  S
O434       Ni435   1.946       .  S
Ni435       O439   1.904       .  S
Ni435       O437   1.926       .  S
O436       Ni441   1.942       .  S
C438        O439   1.269       .  A
C438       C1686   1.481       .  S
O443       Ni449   1.918       .  S
O443        C464   1.269       .  A
O444       Ni467   1.911       .  S
O444        C453   1.268       .  A
O445       Ni449   1.903       .  S
O445       Ni467   1.904       .  S
O445       Ni461   1.919       .  S
O445        H468   0.966       .  S
C446        O463   1.277       .  A
C446        O455   1.274       .  A
C446       C1710   1.477       .  S
O447       Ni466   1.919       .  S
O447        C453   1.268       .  A
O448       Ni466   1.904       .  S
O448        C450   1.269       .  A
Ni449       O452   1.913       .  S
Ni449       O454   1.909       .  S
C450        O460   1.272       .  A
C450       C1629   1.484       .  S
O451       Ni467   1.936       .  S
O451        C457   1.281       .  A
O452        C457   1.276       .  A
C453       C1653   1.474       .  S
O454        C456   1.269       .  A
O455       Ni466   1.914       .  S
C456        O462   1.271       .  A
C456       C1605   1.490       .  S
C457       C1734   1.481   1_556  S
H458        O459   0.966       .  S
O459       Ni467   1.921       .  S
O459       Ni461   1.912       .  S
O459       Ni466   1.908       .  S
O460       Ni461   1.933       .  S
Ni461       O465   1.917       .  S
Ni461       O463   1.923       .  S
O462       Ni467   1.929       .  S
C464        O465   1.268       .  A
C464       C2550   1.482       .  S
O469       Ni475   1.915   1_554  S
O469        C490   1.270       .  A
O470       Ni493   1.901       .  S
O470        C479   1.265       .  A
O471       Ni475   1.919   1_554  S
O471       Ni493   1.910   1_554  S
O471       Ni487   1.937       .  S
O471        H494   0.966   1_554  S
C472        O489   1.275       .  A
C472        O481   1.275       .  A
C472       C1566   1.485       .  S
O473       Ni492   1.932       .  S
O473        C479   1.270   1_554  A
O474       Ni492   1.901       .  S
O474        C476   1.268       .  A
Ni475       O478   1.938       .  S
Ni475       O480   1.896       .  S
C476        O486   1.274       .  A
C476       C1581   1.483       .  S
O477       Ni493   1.906       .  S
O477        C483   1.265       .  A
O478        C483   1.270       .  A
C479       C1662   1.480       .  S
O480        C482   1.269       .  A
O481       Ni492   1.919       .  S
C482        O488   1.281       .  A
C482       C1509   1.484       .  S
C483       C1533   1.477       .  S
H484        O485   0.965       .  S
O485       Ni493   1.899   1_554  S
O485       Ni487   1.909       .  S
O485       Ni492   1.915       .  S
O486       Ni487   1.936       .  S
Ni487       O491   1.914       .  S
Ni487       O489   1.919       .  S
O488       Ni493   1.956       .  S
C490        O491   1.270       .  A
C490       C2781   1.475       .  S
O495       Ni501   1.932       .  S
O495        C516   1.269       .  A
O496       Ni519   1.934       .  S
O496        C505   1.274       .  A
O497       Ni501   1.913       .  S
O497       Ni519   1.919       .  S
O497       Ni513   1.907       .  S
O497        H520   0.966       .  S
C498        O515   1.273       .  A
C498        O507   1.275       .  A
C498       C1542   1.483       .  S
O499       Ni518   1.937       .  S
O499        C505   1.274       .  A
O500       Ni518   1.912       .  S
O500        C502   1.271       .  A
Ni501       O504   1.913       .  S
Ni501       O506   1.901       .  S
C502        O512   1.274       .  A
C502       C1485   1.484       .  S
O503       Ni519   1.927       .  S
O503        C509   1.279       .  A
O504        C509   1.275       .  A
C505       C1773   1.501       .  S
O506        C508   1.267       .  A
O507       Ni518   1.930       .  S
C508        O514   1.272       .  A
C508       C1461   1.480       .  S
C509       C1557   1.478       .  S
H510        O511   0.966       .  S
O511       Ni519   1.923       .  S
O511       Ni513   1.929       .  S
O511       Ni518   1.917       .  S
O512       Ni513   1.932       .  S
Ni513       O517   1.934       .  S
Ni513       O515   1.914       .  S
O514       Ni519   1.925       .  S
C516        O517   1.272       .  A
C516       C2709   1.495       .  S
O521       Ni527   1.931       .  S
O521        C542   1.269       .  A
O522       Ni545   1.919       .  S
O522        C531   1.270       .  A
O523       Ni527   1.915       .  S
O523       Ni545   1.913       .  S
O523       Ni539   1.911       .  S
O523        H546   0.966       .  S
C524        O541   1.274       .  A
C524        O533   1.275       .  A
C524       C1398   1.483   1_554  S
O525       Ni544   1.937       .  S
O525        C531   1.274       .  A
O526       Ni544   1.906       .  S
O526        C528   1.270       .  A
Ni527       O530   1.925       .  S
Ni527       O532   1.900       .  S
C528        O538   1.273       .  A
C528       C1590   1.479       .  S
O529       Ni545   1.920       .  S
O529        C535   1.277       .  A
O530        C535   1.276       .  A
C531       C1437   1.498       .  S
O532        C534   1.267       .  A
O533       Ni544   1.926       .  S
C534        O540   1.271       .  A
C534       C1374   1.476       .  S
C535       C1422   1.485       .  S
H536        O537   0.966       .  S
O537       Ni545   1.917       .  S
O537       Ni539   1.922       .  S
O537       Ni544   1.916       .  S
O538       Ni539   1.930       .  S
Ni539       O543   1.923       .  S
Ni539       O541   1.913       .  S
O540       Ni545   1.930       .  S
C542        O543   1.269       .  A
C542       C3006   1.486       .  S
O547       Ni553   1.923       .  S
O547        C568   1.268       .  A
O548       Ni571   1.913       .  S
O548        C557   1.269       .  A
O549       Ni553   1.908       .  S
O549       Ni571   1.907       .  S
O549       Ni565   1.914       .  S
O549        H572   0.966       .  S
C550        O567   1.277       .  A
C550        O559   1.279       .  A
C550       C1413   1.485       .  S
O551       Ni570   1.945       .  S
O551        C557   1.276       .  A
O552       Ni570   1.911       .  S
O552        C554   1.269       .  A
Ni553       O556   1.917       .  S
Ni553       O558   1.903       .  S
C554        O564   1.273       .  A
C554       C1494   1.481       .  S
O555       Ni571   1.924       .  S
O555        C561   1.277       .  A
O556        C561   1.276       .  A
C557       C1341   1.488       .  S
O558        C560   1.268       .  A
O559       Ni570   1.935       .  S
C560        O566   1.274       .  A
C560       C1317   1.483       .  S
C561       C1389   1.478       .  S
H562        O563   0.985       .  S
O563       Ni571   1.908       .  S
O563       Ni565   1.915       .  S
O563       Ni570   1.906       .  S
O564       Ni565   1.936       .  S
Ni565       O569   1.923       .  S
Ni565       O567   1.917       .  S
O566       Ni571   1.938       .  S
C568        O569   1.270       .  A
C568       C2910   1.483       .  S
O573       Ni579   1.935       .  S
O573        C594   1.272       .  A
O574       Ni597   1.915       .  S
O574        C583   1.270       .  A
O575       Ni579   1.920       .  S
O575       Ni597   1.916       .  S
O575       Ni591   1.911       .  S
O575        H598   0.966       .  S
C576        O593   1.269       .  A
C576        O585   1.275       .  A
C576       C1269   1.482       .  S
O577       Ni596   1.937       .  S
O577        C583   1.274       .  A
O578       Ni596   1.908       .  S
O578        C580   1.270       .  A
Ni579       O582   1.922       .  S
Ni579       O584   1.905       .  S
C580        O590   1.272       .  A
C580       C1758   1.481       .  S
O581       Ni597   1.919       .  S
O581        C587   1.274       .  A
O582        C587   1.274       .  A
C583       C1446   1.495       .  S
O584        C586   1.270       .  A
O585       Ni596   1.940       .  S
C586        O592   1.271       .  A
C586       C1254   1.472       .  S
C587       C1302   1.482       .  S
H588        O589   0.966       .  S
O589       Ni597   1.923       .  S
O589       Ni591   1.918       .  S
O589       Ni596   1.923       .  S
O590       Ni591   1.928       .  S
Ni591       O595   1.914       .  S
Ni591       O593   1.907       .  S
O592       Ni597   1.925       .  S
C594        O595   1.265       .  A
C594       C2454   1.495       .  S
O599       Ni605   1.939       .  S
O599        C620   1.272       .  A
O600       Ni623   1.924       .  S
O600        C609   1.272       .  A
O601       Ni605   1.913       .  S
O601       Ni623   1.919       .  S
O601       Ni617   1.914       .  S
O601        H624   0.967       .  S
C602        O619   1.277       .  A
C602        O611   1.277       .  A
C602       C1293   1.484       .  S
O603       Ni622   1.931       .  S
O603        C609   1.271       .  A
O604       Ni622   1.907       .  S
O604        C606   1.269       .  A
Ni605       O608   1.925       .  S
Ni605       O610   1.899       .  S
C606        O616   1.270       .  A
C606       C1638   1.479       .  S
O607       Ni623   1.919       .  S
O607        C613   1.276       .  A
O608        C613   1.276       .  A
C609       C1350   1.493       .  S
O610        C612   1.268       .  A
O611       Ni622   1.926       .  S
C612        O618   1.272       .  A
C612       C1230   1.475       .  S
C613       C1278   1.484       .  S
H614        O615   0.966       .  S
O615       Ni623   1.916       .  S
O615       Ni617   1.909       .  S
O615       Ni622   1.909       .  S
O616       Ni617   1.924       .  S
Ni617       O621   1.912       .  S
Ni617       O619   1.920       .  S
O618       Ni623   1.929       .  S
C620        O621   1.267       .  A
C620       C2406   1.483       .  S
O625       Ni631   1.938       .  S
O625        C646   1.276       .  A
O626       Ni649   1.918       .  S
O626        C635   1.269       .  A
O627       Ni631   1.907       .  S
O627       Ni649   1.908       .  S
O627       Ni643   1.917       .  S
O627        H650   0.966       .  S
C628        O645   1.279       .  A
C628        O637   1.279       .  A
C628       C1158   1.486       .  S
O629       Ni648   1.922       .  S
O629        C635   1.269       .  A
O630       Ni648   1.914       .  S
O630        C632   1.269       .  A
Ni631       O634   1.928   1_554  S
Ni631       O636   1.920       .  S
C632        O642   1.275       .  A
C632       C2253   1.494       .  S
O633       Ni649   1.917   1_556  S
O633        C639   1.275       .  A
O634        C639   1.279       .  A
C635       C1518   1.480       .  S
O636        C638   1.272       .  A
O637       Ni648   1.931       .  S
C638        O644   1.277       .  A
C638       C1206   1.503       .  S
C639       C1125   1.486       .  S
H640        O641   0.966       .  S
O641       Ni649   1.916       .  S
O641       Ni643   1.902       .  S
O641       Ni648   1.907       .  S
O642       Ni643   1.947       .  S
Ni643       O647   1.908       .  S
Ni643       O645   1.925       .  S
O644       Ni649   1.945       .  S
C646        O647   1.270       .  A
C646       C1173   1.486       .  S
O651       Ni657   1.930       .  S
O651        C672   1.275       .  A
O652       Ni675   1.910       .  S
O652        C661   1.269       .  A
O653       Ni657   1.903       .  S
O653       Ni675   1.903       .  S
O653       Ni669   1.918       .  S
O653        H676   0.966       .  S
C654        O671   1.280       .  A
C654        O663   1.277       .  A
C654       C1134   1.488       .  S
O655       Ni674   1.916       .  S
O655        C661   1.268       .  A
O656       Ni674   1.911       .  S
O656        C658   1.267       .  A
Ni657       O660   1.929       .  S
Ni657       O662   1.916       .  S
C658        O668   1.276       .  A
C658       C2190   1.506       .  S
O659       Ni675   1.923       .  S
O659        C665   1.279       .  A
O660        C665   1.278       .  A
C661       C1470   1.473       .  S
O662        C664   1.270       .  A
O663       Ni674   1.913       .  S
C664        O670   1.276       .  A
C664       C1110   1.499       .  S
C665       C1149   1.489       .  S
H666        O667   0.966       .  S
O667       Ni675   1.916       .  S
O667       Ni669   1.896       .  S
O667       Ni674   1.903       .  S
O668       Ni669   1.947       .  S
Ni669       O673   1.905       .  S
Ni669       O671   1.930       .  S
O670       Ni675   1.945       .  S
C672        O673   1.268       .  A
C672       C1077   1.487       .  S
O677       Ni683   1.929       .  S
O677        C698   1.271       .  A
O678       Ni701   1.936       .  S
O678        C687   1.271       .  A
O679       Ni683   1.911       .  S
O679       Ni701   1.922       .  S
O679       Ni695   1.912       .  S
O679        H702   0.966       .  S
C680        O697   1.277       .  A
C680        O689   1.274       .  A
C680       C1014   1.481       .  S
O681       Ni700   1.929       .  S
O681        C687   1.270       .  A
O682       Ni700   1.897       .  S
O682        C684   1.269       .  A
Ni683       O686   1.916       .  S
Ni683       O688   1.911       .  S
C684        O694   1.273       .  A
C684       C1677   1.494       .  S
O685       Ni701   1.920       .  S
O685        C691   1.275       .  A
O686        C691   1.275       .  A
C687       C1821   1.503       .  S
O688        C690   1.269       .  A
O689       Ni700   1.914       .  S
C690        O696   1.267       .  A
C690       C1053   1.466       .  S
C691       C1029   1.493       .  S
H692        O693   0.966       .  S
O693       Ni701   1.915       .  S
O693       Ni695   1.927       .  S
O693       Ni700   1.907       .  S
O694       Ni695   1.932       .  S
Ni695       O699   1.940       .  S
Ni695       O697   1.925       .  S
O696       Ni701   1.915       .  S
C698        O699   1.276       .  A
C698       C1101   1.509       .  S
O703       Ni709   1.934       .  S
O703        C724   1.272       .  A
O704       Ni727   1.928       .  S
O704        C713   1.271       .  A
O705       Ni709   1.908       .  S
O705       Ni727   1.919       .  S
O705       Ni721   1.916       .  S
O705        H728   0.967       .  S
C706        O723   1.278       .  A
C706        O715   1.275       .  A
C706       C1038   1.478       .  S
O707       Ni726   1.932       .  S
O707        C713   1.270       .  A
O708       Ni726   1.907       .  S
O708        C710   1.269       .  A
Ni709       O712   1.925       .  S
Ni709       O714   1.906       .  S
C710        O720   1.273       .  A
C710       C1614   1.483       .  S
O711       Ni727   1.919       .  S
O711        C717   1.277       .  A
O712        C717   1.277       .  A
C713       C1806   1.488       .  S
O714        C716   1.270       .  A
O715       Ni726   1.915   1_554  S
C716        O722   1.272       .  A
C716        C990   1.497       .  S
C717       C1005   1.482       .  S
H718        O719   0.965       .  S
O719       Ni727   1.913       .  S
O719       Ni721   1.919       .  S
O719       Ni726   1.912       .  S
O720       Ni721   1.931       .  S
Ni721       O725   1.930       .  S
Ni721       O723   1.927   1_556  S
O722       Ni727   1.933       .  S
C724        O725   1.273       .  A
C724       C1197   1.497       .  S
O729       Ni735   1.920       .  S
O729        C750   1.268       .  A
O730       Ni753   1.915       .  S
O730        C739   1.270       .  A
O731       Ni735   1.906       .  S
O731       Ni753   1.903       .  S
O731       Ni747   1.902       .  S
O731        H754   0.966       .  S
C732        O749   1.268       .  A
C732        O741   1.270       .  A
C732        C933   1.478       .  S
O733       Ni752   1.917       .  S
O733        C739   1.270       .  A
O734       Ni752   1.903       .  S
O734        C736   1.271       .  A
Ni735       O738   1.908       .  S
Ni735       O740   1.904       .  S
C736        O746   1.276       .  A
C736       C1245   1.479       .  S
O737       Ni753   1.926       .  S
O737        C743   1.279       .  A
O738        C743   1.275       .  A
C739       C1950   1.475       .  S
O740        C742   1.268       .  A
O741       Ni752   1.930       .  S
C742        O748   1.271       .  A
C742       C1062   1.480       .  S
C743        C918   1.486       .  S
H744        O745   0.966       .  S
O745       Ni753   1.938       .  S
O745       Ni747   1.915       .  S
O745       Ni752   1.918       .  S
O746       Ni747   1.938       .  S
Ni747       O751   1.911       .  S
Ni747       O749   1.907       .  S
O748       Ni753   1.922       .  S
C750        O751   1.265       .  A
C750        C957   1.486       .  S
O755       Ni761   1.925       .  S
O755        C776   1.271       .  A
O756       Ni779   1.929       .  S
O756        C765   1.271       .  A
O757       Ni761   1.901       .  S
O757       Ni779   1.913       .  S
O757       Ni773   1.912       .  S
O757        H780   0.965       .  S
C758        O775   1.278       .  A
C758        O767   1.276       .  A
C758        C909   1.476       .  S
O759       Ni778   1.930       .  S
O759        C765   1.270       .  A
O760       Ni778   1.900       .  S
O760        C762   1.269       .  A
Ni761       O764   1.914       .  S
Ni761       O766   1.899       .  S
C762        O772   1.272       .  A
C762       C1221   1.484       .  S
O763       Ni779   1.921       .  S
O763        C769   1.277       .  A
O764        C769   1.277       .  A
C765       C1902   1.490       .  S
O766        C768   1.267       .  A
O767       Ni778   1.920       .  S
C768        O774   1.272       .  A
C768        C981   1.471       .  S
C769        C942   1.487       .  S
H770        O771   0.965       .  S
O771       Ni779   1.912       .  S
O771       Ni773   1.919       .  S
O771       Ni778   1.904       .  S
O772       Ni773   1.932       .  S
Ni773       O777   1.936       .  S
Ni773       O775   1.921       .  S
O774       Ni779   1.930       .  S
C776        O777   1.274       .  A
C776        C885   1.506       .  S
O781       Ni787   1.930       .  S
O781        C802   1.272       .  A
O782       Ni805   1.912       .  S
O782        C791   1.267       .  A
O783       Ni787   1.912       .  S
O783       Ni805   1.903       .  S
O783       Ni799   1.901       .  S
O783        H806   0.966       .  S
C784        O801   1.269       .  A
C784        O793   1.270       .  A
C784        C861   1.488       .  S
O785       Ni804   1.921       .  S
O785        C791   1.271       .  A
O786       Ni804   1.905       .  S
O786        C788   1.274       .  A
Ni787       O790   1.927       .  S
Ni787       O792   1.901       .  S
C788        O798   1.280       .  A
C788       C1365   1.482       .  S
O789       Ni805   1.910       .  S
O789        C795   1.273       .  A
O790        C795   1.275       .  A
C791       C2085   1.482       .  S
O792        C794   1.267       .  A
O793       Ni804   1.934       .  S
C794        O800   1.273       .  A
C794       C1182   1.485       .  S
C795        C846   1.471       .  S
H796        O797   0.967       .  S
O797       Ni805   1.938       .  S
O797       Ni799   1.917       .  S
O797       Ni804   1.918       .  S
O798       Ni799   1.951       .  S
Ni799       O803   1.904       .  S
Ni799       O801   1.919       .  S
O800       Ni805   1.936       .  S
C802        O803   1.267       .  A
C802        C966   1.476       .  S
O807       Ni813   1.928       .  S
O807        C828   1.267       .  A
O808       Ni831   1.941       .  S
O808        C817   1.278       .  A
O809       Ni813   1.906       .  S
O809       Ni831   1.917       .  S
O809       Ni825   1.902       .  S
O809        H832   0.966       .  S
C810        O827   1.266       .  A
C810        O819   1.271       .  A
C810        C837   1.482       .  S
O811       Ni830   1.921       .  S
O811        C817   1.272       .  A
O812       Ni830   1.905       .  S
O812        C814   1.275       .  A
Ni813       O816   1.915       .  S
Ni813       O818   1.900       .  S
C814        O824   1.279       .  A
C814       C1326   1.497       .  S
O815       Ni831   1.940       .  S
O815        C821   1.283       .  A
O816        C821   1.276       .  A
C817       C2046   1.498       .  S
O818        C820   1.267       .  A
O819       Ni830   1.933       .  S
C820        O826   1.272       .  A
C820       C1086   1.471       .  S
C821        C870   1.490       .  S
H822        O823   0.967       .  S
O823       Ni831   1.941       .  S
O823       Ni825   1.920       .  S
O823       Ni830   1.915       .  S
O824       Ni825   1.953       .  S
Ni825       O829   1.931       .  S
Ni825       O827   1.906       .  S
O826       Ni831   1.926       .  S
C828        O829   1.272       .  A
C828        C894   1.508       .  S
C833        C834   1.403       .  A
C833        C838   1.400       .  A
C833        H843   1.084       .  S
C834        C839   1.477       .  S
C834        C835   1.409       .  A
C835        C836   1.397       .  A
C835        S840   1.805       .  S
C836        C837   1.407       .  A
C836        H841   1.084       .  S
C837        C838   1.416       .  A
C838        S842   1.801       .  S
C839        C844   1.408       .  A
C839        C848   1.403       .  A
S840        H856   1.406       .  S
S842        H853   1.407       .  S
C844        C845   1.400   1_556  A
C844        S849   1.807       .  S
C845        C846   1.404       .  A
C845        H850   1.083       .  S
C846        C847   1.413       .  A
C847        C848   1.399   1_554  A
C847        S851   1.804       .  S
C848        H852   1.084       .  S
S849        H854   1.407       .  S
S851        H855   1.406       .  S
C857        C858   1.408       .  A
C857        C862   1.406       .  A
C857        H867   1.084       .  S
C858        C863   1.493       .  S
C858        C859   1.412       .  A
C859        C860   1.402       .  A
C859        S864   1.805       .  S
C860        C861   1.407       .  A
C860        H865   1.084       .  S
C861        C862   1.415       .  A
C862        S866   1.803       .  S
C863        C868   1.409       .  A
C863        C872   1.409       .  A
S864        H880   1.406       .  S
S866        H877   1.406       .  S
C868        C869   1.402       .  A
C868        S873   1.808       .  S
C869        C870   1.408       .  A
C869        H874   1.083       .  S
C870        C871   1.414       .  A
C871        C872   1.408       .  A
C871        S875   1.802       .  S
C872        H876   1.084       .  S
S873        H878   1.407       .  S
S875        H879   1.407       .  S
C881        C882   1.407       .  A
C881        C886   1.410       .  A
C881        H891   1.084       .  S
C882        C887   1.501       .  S
C882        C883   1.414       .  A
C883        C884   1.402       .  A
C883        S888   1.805       .  S
C884        C885   1.412       .  A
C884        H889   1.083       .  S
C885        C886   1.420       .  A
C886        S890   1.799       .  S
C887        C892   1.413       .  A
C887        C896   1.401       .  A
S888        H904   1.406       .  S
S890        H901   1.407       .  S
C892        C893   1.411       .  A
C892        S897   1.806       .  S
C893        C894   1.410       .  A
C893        H898   1.082       .  S
C894        C895   1.426       .  A
C895        C896   1.407       .  A
C895        S899   1.811       .  S
C896        H900   1.083       .  S
S897        H902   1.407       .  S
S899        H903   1.407       .  S
C905        C906   1.403       .  A
C905        C910   1.399       .  A
C905        H915   1.084       .  S
C906        C911   1.478       .  S
C906        C907   1.410       .  A
C907        C908   1.399       .  A
C907        S912   1.804       .  S
C908        C909   1.406       .  A
C908        H913   1.084       .  S
C909        C910   1.413       .  A
C910        S914   1.803       .  S
C911        C916   1.405       .  A
C911        C920   1.404       .  A
S912        H928   1.406       .  S
S914        H925   1.407       .  S
C916        C917   1.397       .  A
C916        S921   1.808       .  S
C917        C918   1.410       .  A
C917        H922   1.082       .  S
C918        C919   1.416       .  A
C919        C920   1.402       .  A
C919        S923   1.802       .  S
C920        H924   1.084       .  S
S921        H926   1.407       .  S
S923        H927   1.407       .  S
C929        C930   1.399       .  A
C929        C934   1.397       .  A
C929        H939   1.084       .  S
C930        C935   1.474       .  S
C930        C931   1.412       .  A
C931        C932   1.399       .  A
C931        S936   1.803       .  S
C932        C933   1.403       .  A
C932        H937   1.084       .  S
C933        C934   1.417       .  A
C934        S938   1.802       .  S
C935        C940   1.403       .  A
C935        C944   1.401       .  A
S936        H952   1.405       .  S
S938        H949   1.403       .  S
C940        C941   1.398   1_554  A
C940        S945   1.807       .  S
C941        C942   1.410       .  A
C941        H946   1.082       .  S
C942        C943   1.419       .  A
C943        C944   1.401   1_556  A
C943        S947   1.803       .  S
C944        H948   1.084       .  S
S945        H950   1.407       .  S
S947        H951   1.408       .  S
C953        C954   1.401       .  A
C953        C958   1.400       .  A
C953        H963   1.084       .  S
C954        C959   1.476       .  S
C954        C955   1.408       .  A
C955        C956   1.397       .  A
C955        S960   1.805       .  S
C956        C957   1.409       .  A
C956        H961   1.084       .  S
C957        C958   1.417       .  A
C958        S962   1.800       .  S
C959        C964   1.408       .  A
C959        C968   1.399       .  A
S960        H976   1.406       .  S
S962        H973   1.408       .  S
C964        C965   1.404       .  A
C964        S969   1.805       .  S
C965        C966   1.405       .  A
C965        H970   1.083       .  S
C966        C967   1.415       .  A
C967        C968   1.396       .  A
C967        S971   1.803       .  S
C968        H972   1.084       .  S
S969        H974   1.407       .  S
S971        H975   1.407       .  S
C977        C978   1.404       .  A
C977        C982   1.403       .  A
C977        H987   1.084       .  S
C978        C983   1.478       .  S
C978        C979   1.412       .  A
C979        C980   1.395       .  A
C979        S984   1.806       .  S
C980        C981   1.402       .  A
C980        H985   1.084       .  S
C981        C982   1.412       .  A
C982        S986   1.802       .  S
C983        C988   1.406       .  A
C983        C992   1.399       .  A
S984       H1000   1.404       .  S
S986        H997   1.407       .  S
C988        C989   1.400       .  A
C988        S993   1.808       .  S
C989        C990   1.411       .  A
C989        H994   1.082       .  S
C990        C991   1.422       .  A
C991        C992   1.403       .  A
C991        S995   1.801       .  S
C992        H996   1.084       .  S
S993        H998   1.407       .  S
S995        H999   1.406       .  S
C1001      C1002   1.404       .  A
C1001      C1006   1.402       .  A
C1001      H1011   1.084       .  S
C1002      C1007   1.480       .  S
C1002      C1003   1.409       .  A
C1003      C1004   1.398       .  A
C1003      S1008   1.804       .  S
C1004      C1005   1.407       .  A
C1004      H1009   1.084       .  S
C1005      C1006   1.415       .  A
C1006      S1010   1.803       .  S
C1007      C1012   1.406       .  A
C1007      C1016   1.404       .  A
S1008      H1024   1.405       .  S
S1010      H1021   1.407       .  S
C1012      C1013   1.401       .  A
C1012      S1017   1.806       .  S
C1013      C1014   1.407       .  A
C1013      H1018   1.083       .  S
C1014      C1015   1.414       .  A
C1015      C1016   1.403       .  A
C1015      S1019   1.803       .  S
C1016      H1020   1.084       .  S
S1017      H1022   1.407       .  S
S1019      H1023   1.408       .  S
C1025      C1026   1.403       .  A
C1025      C1030   1.403       .  A
C1025      H1035   1.084       .  S
C1026      C1031   1.478       .  S
C1026      C1027   1.407       .  A
C1027      C1028   1.395       .  A
C1027      S1032   1.805       .  S
C1028      C1029   1.411       .  A
C1028      H1033   1.083       .  S
C1029      C1030   1.419       .  A
C1030      S1034   1.800       .  S
C1031      C1036   1.407       .  A
C1031      C1040   1.404       .  A
S1032      H1048   1.405       .  S
S1034      H1045   1.407       .  S
C1036      C1037   1.398       .  A
C1036      S1041   1.808       .  S
C1037      C1038   1.405       .  A
C1037      H1042   1.083       .  S
C1038      C1039   1.415       .  A
C1039      C1040   1.403       .  A
C1039      S1043   1.803       .  S
C1040      H1044   1.084       .  S
S1041      H1046   1.407       .  S
S1043      H1047   1.405       .  S
C1049      C1050   1.403       .  A
C1049      C1054   1.397       .  A
C1049      H1059   1.084       .  S
C1050      C1055   1.478       .  S
C1050      C1051   1.412       .  A
C1051      C1052   1.400       .  A
C1051      S1056   1.803       .  S
C1052      C1053   1.403       .  A
C1052      H1057   1.084       .  S
C1053      C1054   1.409       .  A
C1054      S1058   1.804       .  S
C1055      C1060   1.409       .  A
C1055      C1064   1.400       .  A
S1056      H1072   1.407       .  S
S1058      H1069   1.406       .  S
C1060      C1061   1.403       .  A
C1060      S1065   1.806       .  S
C1061      C1062   1.406       .  A
C1061      H1066   1.083       .  S
C1062      C1063   1.417       .  A
C1063      C1064   1.396       .  A
C1063      S1067   1.804       .  S
C1064      H1068   1.084       .  S
S1065      H1070   1.407       .  S
S1067      H1071   1.407       .  S
C1073      C1074   1.403       .  A
C1073      C1078   1.406       .  A
C1073      H1083   1.083       .  S
C1074      C1079   1.479       .  S
C1074      C1075   1.410       .  A
C1075      C1076   1.394       .  A
C1075      S1080   1.806       .  S
C1076      C1077   1.407       .  A
C1076      H1081   1.084       .  S
C1077      C1078   1.419       .  A
C1078      S1082   1.808       .  S
C1079      C1084   1.410       .  A
C1079      C1088   1.402       .  A
S1080      H1096   1.406       .  S
S1082      H1093   1.407       .  S
C1084      C1085   1.402       .  A
C1084      S1089   1.806       .  S
C1085      C1086   1.403       .  A
C1085      H1090   1.083       .  S
C1086      C1087   1.413       .  A
C1087      C1088   1.397       .  A
C1087      S1091   1.804       .  S
C1088      H1092   1.084       .  S
S1089      H1094   1.407       .  S
S1091      H1095   1.407       .  S
C1097      C1098   1.403       .  A
C1097      C1102   1.403       .  A
C1097      H1107   1.084       .  S
C1098      C1103   1.507       .  S
C1098      C1099   1.419       .  A
C1099      C1100   1.413       .  A
C1099      S1104   1.803       .  S
C1100      C1101   1.410       .  A
C1100      H1105   1.084       .  S
C1101      C1102   1.424       .  A
C1102      S1106   1.803       .  S
C1103      C1108   1.417       .  A
C1103      C1112   1.406       .  A
S1104      H1120   1.406       .  S
S1106      H1117   1.407       .  S
C1108      C1109   1.411       .  A
C1108      S1113   1.808       .  S
C1109      C1110   1.408       .  A
C1109      H1114   1.083       .  S
C1110      C1111   1.418       .  A
C1111      C1112   1.407       .  A
C1111      S1115   1.802       .  S
C1112      H1116   1.083       .  S
S1113      H1118   1.407       .  S
S1115      H1119   1.407       .  S
C1121      C1122   1.403       .  A
C1121      C1126   1.405       .  A
C1121      H1131   1.083       .  S
C1122      C1127   1.482       .  S
C1122      C1123   1.409       .  A
C1123      C1124   1.397       .  A
C1123      S1128   1.804       .  S
C1124      C1125   1.406       .  A
C1124      H1129   1.084       .  S
C1125      C1126   1.418       .  A
C1126      S1130   1.809       .  S
C1127      C1132   1.406       .  A
C1127      C1136   1.403       .  A
S1128      H1144   1.407       .  S
S1130      H1141   1.407       .  S
C1132      C1133   1.400       .  A
C1132      S1137   1.807       .  S
C1133      C1134   1.410       .  A
C1133      H1138   1.083       .  S
C1134      C1135   1.417       .  A
C1135      C1136   1.401       .  A
C1135      S1139   1.802       .  S
C1136      H1140   1.084       .  S
S1137      H1142   1.407       .  S
S1139      H1143   1.407       .  S
C1145      C1146   1.403       .  A
C1145      C1150   1.402       .  A
C1145      H1155   1.084       .  S
C1146      C1151   1.487       .  S
C1146      C1147   1.413       .  A
C1147      C1148   1.402       .  A
C1147      S1152   1.803       .  S
C1148      C1149   1.406       .  A
C1148      H1153   1.084       .  S
C1149      C1150   1.419       .  A
C1150      S1154   1.804       .  S
C1151      C1156   1.411       .  A
C1151      C1160   1.401       .  A
S1152      H1168   1.406       .  S
S1154      H1165   1.408       .  S
C1156      C1157   1.407       .  A
C1156      S1161   1.806       .  S
C1157      C1158   1.405       .  A
C1157      H1162   1.082       .  S
C1158      C1159   1.416       .  A
C1159      C1160   1.401       .  A
C1159      S1163   1.803       .  S
C1160      H1164   1.084       .  S
S1161      H1166   1.407       .  S
S1163      H1167   1.407       .  S
C1169      C1170   1.402       .  A
C1169      C1174   1.401       .  A
C1169      H1179   1.084       .  S
C1170      C1175   1.485       .  S
C1170      C1171   1.414       .  A
C1171      C1172   1.400       .  A
C1171      S1176   1.806       .  S
C1172      C1173   1.405       .  A
C1172      H1177   1.084       .  S
C1173      C1174   1.416       .  A
C1174      S1178   1.798       .  S
C1175      C1180   1.411       .  A
C1175      C1184   1.401       .  A
S1176      H1192   1.405       .  S
S1178      H1189   1.407       .  S
C1180      C1181   1.405       .  A
C1180      S1185   1.806       .  S
C1181      C1182   1.407       .  A
C1181      H1186   1.083       .  S
C1182      C1183   1.416       .  A
C1183      C1184   1.399       .  A
C1183      S1187   1.803       .  S
C1184      H1188   1.084       .  S
S1185      H1190   1.407       .  S
S1187      H1191   1.408       .  S
C1193      C1194   1.402       .  A
C1193      C1198   1.402       .  A
C1193      H1203   1.084       .  S
C1194      C1199   1.497       .  S
C1194      C1195   1.417   1_556  A
C1195      C1196   1.411   1_554  A
C1195      S1200   1.804       .  S
C1196      C1197   1.408       .  A
C1196      H1201   1.084   1_556  S
C1197      C1198   1.419       .  A
C1198      S1202   1.804       .  S
C1199      C1204   1.411   1_556  A
C1199      C1208   1.404       .  A
S1200      H1216   1.405       .  S
S1202      H1213   1.407       .  S
C1204      C1205   1.411       .  A
C1204      S1209   1.806       .  S
C1205      C1206   1.410       .  A
C1205      H1210   1.082       .  S
C1206      C1207   1.421   1_554  A
C1207      C1208   1.407       .  A
C1207      S1211   1.802       .  S
C1208      H1212   1.084       .  S
S1209      H1214   1.406       .  S
S1211      H1215   1.408       .  S
C1217      C1218   1.402       .  A
C1217      C1222   1.402       .  A
C1217      H1227   1.084       .  S
C1218      C1223   1.474       .  S
C1218      C1219   1.408       .  A
C1219      C1220   1.394       .  A
C1219      S1224   1.805       .  S
C1220      C1221   1.407       .  A
C1220      H1225   1.084       .  S
C1221      C1222   1.417       .  A
C1222      S1226   1.798       .  S
C1223      C1228   1.408       .  A
C1223      C1232   1.398       .  A
S1224      H1240   1.405       .  S
S1226      H1237   1.406       .  S
C1228      C1229   1.404       .  A
C1228      S1233   1.804       .  S
C1229      C1230   1.406       .  A
C1229      H1234   1.083       .  S
C1230      C1231   1.414       .  A
C1231      C1232   1.394       .  A
C1231      S1235   1.801       .  S
C1232      H1236   1.084       .  S
S1233      H1238   1.407       .  S
S1235      H1239   1.407       .  S
C1241      C1242   1.402       .  A
C1241      C1246   1.398       .  A
C1241      H1251   1.084       .  S
C1242      C1247   1.473       .  S
C1242      C1243   1.410       .  A
C1243      C1244   1.397       .  A
C1243      S1248   1.807       .  S
C1244      C1245   1.407       .  A
C1244      H1249   1.083       .  S
C1245      C1246   1.414       .  A
C1246      S1250   1.804       .  S
C1247      C1252   1.408       .  A
C1247      C1256   1.399       .  A
S1248      H1264   1.403       .  S
S1250      H1261   1.407       .  S
C1252      C1253   1.403       .  A
C1252      S1257   1.806       .  S
C1253      C1254   1.404       .  A
C1253      H1258   1.083       .  S
C1254      C1255   1.413       .  A
C1255      C1256   1.396       .  A
C1255      S1259   1.803       .  S
C1256      H1260   1.084       .  S
S1257      H1262   1.407       .  S
S1259      H1263   1.407       .  S
C1265      C1266   1.401       .  A
C1265      C1270   1.399       .  A
C1265      H1275   1.084       .  S
C1266      C1271   1.480       .  S
C1266      C1267   1.413       .  A
C1267      C1268   1.402       .  A
C1267      S1272   1.805       .  S
C1268      C1269   1.405       .  A
C1268      H1273   1.084       .  S
C1269      C1270   1.415       .  A
C1270      S1274   1.803       .  S
C1271      C1276   1.407       .  A
C1271      C1280   1.403       .  A
S1272      H1288   1.405       .  S
S1274      H1285   1.407       .  S
C1276      C1277   1.401       .  A
C1276      S1281   1.807       .  S
C1277      C1278   1.407       .  A
C1277      H1282   1.083       .  S
C1278      C1279   1.417       .  A
C1279      C1280   1.403       .  A
C1279      S1283   1.802       .  S
C1280      H1284   1.084       .  S
S1281      H1286   1.407       .  S
S1283      H1287   1.407       .  S
C1289      C1290   1.401       .  A
C1289      C1294   1.400   1_554  A
C1289      H1299   1.084       .  S
C1290      C1295   1.483       .  S
C1290      C1291   1.414       .  A
C1291      C1292   1.401   1_554  A
C1291      S1296   1.804       .  S
C1292      C1293   1.405       .  A
C1292      H1297   1.084       .  S
C1293      C1294   1.418       .  A
C1294      S1298   1.804       .  S
C1295      C1300   1.409       .  A
C1295      C1304   1.403       .  A
S1296      H1312   1.406       .  S
S1298      H1309   1.407       .  S
C1300      C1301   1.403       .  A
C1300      S1305   1.807       .  S
C1301      C1302   1.407       .  A
C1301      H1306   1.083       .  S
C1302      C1303   1.415       .  A
C1303      C1304   1.402       .  A
C1303      S1307   1.803       .  S
C1304      H1308   1.084       .  S
S1305      H1310   1.407       .  S
S1307      H1311   1.407       .  S
C1313      C1314   1.404       .  A
C1313      C1318   1.405       .  A
C1313      H1323   1.084       .  S
C1314      C1319   1.482       .  S
C1314      C1315   1.411       .  A
C1315      C1316   1.397       .  A
C1315      S1320   1.806       .  S
C1316      C1317   1.405       .  A
C1316      H1321   1.084       .  S
C1317      C1318   1.415       .  A
C1318      S1322   1.801       .  S
C1319      C1324   1.406       .  A
C1319      C1328   1.400       .  A
S1320      H1336   1.405       .  S
S1322      H1333   1.407       .  S
C1324      C1325   1.400       .  A
C1324      S1329   1.807       .  S
C1325      C1326   1.410       .  A
C1325      H1330   1.082       .  S
C1326      C1327   1.424       .  A
C1327      C1328   1.404       .  A
C1327      S1331   1.801       .  S
C1328      H1332   1.084       .  S
S1329      H1334   1.407       .  S
S1331      H1335   1.408       .  S
C1337      C1338   1.403       .  A
C1337      C1342   1.403       .  A
C1337      H1347   1.084       .  S
C1338      C1343   1.491       .  S
C1338      C1339   1.415       .  A
C1339      C1340   1.406       .  A
C1339      S1344   1.804       .  S
C1340      C1341   1.406       .  A
C1340      H1345   1.084       .  S
C1341      C1342   1.415       .  A
C1342      S1346   1.803       .  S
C1343      C1348   1.412       .  A
C1343      C1352   1.401       .  A
S1344      H1360   1.406       .  S
S1346      H1357   1.407       .  S
C1348      C1349   1.410       .  A
C1348      S1353   1.806       .  S
C1349      C1350   1.407       .  A
C1349      H1354   1.081       .  S
C1350      C1351   1.419       .  A
C1351      C1352   1.401       .  A
C1351      S1355   1.803       .  S
C1352      H1356   1.084       .  S
S1353      H1358   1.407       .  S
S1355      H1359   1.407       .  S
C1361      C1362   1.401       .  A
C1361      C1366   1.394       .  A
C1361      H1371   1.084       .  S
C1362      C1367   1.481       .  S
C1362      C1363   1.413       .  A
C1363      C1364   1.405       .  A
C1363      S1368   1.804       .  S
C1364      C1365   1.408       .  A
C1364      H1369   1.084       .  S
C1365      C1366   1.414       .  A
C1366      S1370   1.803       .  S
C1367      C1372   1.409       .  A
C1367      C1376   1.403       .  A
S1368      H1384   1.405       .  S
S1370      H1381   1.407       .  S
C1372      C1373   1.400       .  A
C1372      S1377   1.808       .  S
C1373      C1374   1.404       .  A
C1373      H1378   1.083       .  S
C1374      C1375   1.415       .  A
C1375      C1376   1.402       .  A
C1375      S1379   1.805       .  S
C1376      H1380   1.084       .  S
S1377      H1382   1.407       .  S
S1379      H1383   1.405       .  S
C1385      C1386   1.405       .  A
C1385      C1390   1.402       .  A
C1385      H1395   1.084       .  S
C1386      C1391   1.482       .  S
C1386      C1387   1.411       .  A
C1387      C1388   1.396       .  A
C1387      S1392   1.805       .  S
C1388      C1389   1.404       .  A
C1388      H1393   1.084       .  S
C1389      C1390   1.414       .  A
C1390      S1394   1.803       .  S
C1391      C1396   1.408       .  A
C1391      C1400   1.403       .  A
S1392      H1408   1.406       .  S
S1394      H1405   1.407       .  S
C1396      C1397   1.401       .  A
C1396      S1401   1.806       .  S
C1397      C1398   1.407       .  A
C1397      H1402   1.083       .  S
C1398      C1399   1.416       .  A
C1399      C1400   1.399       .  A
C1399      S1403   1.803   1_556  S
C1400      H1404   1.084       .  S
S1401      H1406   1.407       .  S
S1403      H1407   1.405       .  S
C1409      C1410   1.401       .  A
C1409      C1414   1.399       .  A
C1409      H1419   1.084       .  S
C1410      C1415   1.485       .  S
C1410      C1411   1.414       .  A
C1411      C1412   1.404       .  A
C1411      S1416   1.803       .  S
C1412      C1413   1.406       .  A
C1412      H1417   1.084       .  S
C1413      C1414   1.417       .  A
C1414      S1418   1.803       .  S
C1415      C1420   1.410       .  A
C1415      C1424   1.401       .  A
S1416      H1432   1.406       .  S
S1418      H1429   1.408       .  S
C1420      C1421   1.405       .  A
C1420      S1425   1.805       .  S
C1421      C1422   1.406       .  A
C1421      H1426   1.083       .  S
C1422      C1423   1.418       .  A
C1423      C1424   1.400       .  A
C1423      S1427   1.804       .  S
C1424      H1428   1.084       .  S
S1425      H1430   1.407       .  S
S1427      H1431   1.406       .  S
C1433      C1434   1.405       .  A
C1433      C1438   1.407       .  A
C1433      H1443   1.084       .  S
C1434      C1439   1.491       .  S
C1434      C1435   1.411       .  A
C1435      C1436   1.403       .  A
C1435      S1440   1.805       .  S
C1436      C1437   1.409       .  A
C1436      H1441   1.084       .  S
C1437      C1438   1.419       .  A
C1438      S1442   1.801       .  S
C1439      C1444   1.410       .  A
C1439      C1448   1.403       .  A
S1440      H1456   1.404       .  S
S1442      H1453   1.406       .  S
C1444      C1445   1.407       .  A
C1444      S1449   1.807       .  S
C1445      C1446   1.408       .  A
C1445      H1450   1.083       .  S
C1446      C1447   1.419       .  A
C1447      C1448   1.406       .  A
C1447      S1451   1.803       .  S
C1448      H1452   1.084       .  S
S1449      H1454   1.407       .  S
S1451      H1455   1.407       .  S
C1457      C1458   1.401       .  A
C1457      C1462   1.398       .  A
C1457      H1467   1.084       .  S
C1458      C1463   1.478   1_655  S
C1458      C1459   1.411       .  A
C1459      C1460   1.397       .  A
C1459      S1464   1.803       .  S
C1460      C1461   1.404       .  A
C1460      H1465   1.084       .  S
C1461      C1462   1.417       .  A
C1462      S1466   1.804       .  S
C1463      C1468   1.410       .  A
C1463      C1472   1.400       .  A
S1464      H1480   1.407       .  S
S1466      H1477   1.408       .  S
C1468      C1469   1.404       .  A
C1468      S1473   1.805       .  S
C1469      C1470   1.404       .  A
C1469      H1474   1.083       .  S
C1470      C1471   1.415       .  A
C1471      C1472   1.393       .  A
C1471      S1475   1.805       .  S
C1472      H1476   1.084   1_455  S
S1473      H1478   1.407       .  S
S1475      H1479   1.407       .  S
C1481      C1482   1.404       .  A
C1481      C1486   1.404       .  A
C1481      H1491   1.084       .  S
C1482      C1487   1.486       .  S
C1482      C1483   1.411       .  A
C1483      C1484   1.400       .  A
C1483      S1488   1.802       .  S
C1484      C1485   1.406       .  A
C1484      H1489   1.084       .  S
C1485      C1486   1.416       .  A
C1486      S1490   1.804       .  S
C1487      C1492   1.409       .  A
C1487      C1496   1.403       .  A
S1488      H1504   1.405       .  S
S1490      H1501   1.407       .  S
C1492      C1493   1.407       .  A
C1492      S1497   1.806       .  S
C1493      C1494   1.406       .  A
C1493      H1498   1.083       .  S
C1494      C1495   1.413       .  A
C1495      C1496   1.402       .  A
C1495      S1499   1.803       .  S
C1496      H1500   1.084       .  S
S1497      H1502   1.407       .  S
S1499      H1503   1.407       .  S
C1505      C1506   1.399       .  A
C1505      C1510   1.402       .  A
C1505      H1515   1.083       .  S
C1506      C1511   1.479   1_556  S
C1506      C1507   1.411   1_556  A
C1507      C1508   1.401       .  A
C1507      S1512   1.803       .  S
C1508      C1509   1.405   1_554  A
C1508      H1513   1.084       .  S
C1509      C1510   1.419       .  A
C1510      S1514   1.810       .  S
C1511      C1516   1.410   1_654  A
C1511      C1520   1.398   1_655  A
S1512      H1528   1.406       .  S
S1514      H1525   1.406       .  S
C1516      C1517   1.408       .  A
C1516      S1521   1.805       .  S
C1517      C1518   1.406   1_556  A
C1517      H1522   1.083       .  S
C1518      C1519   1.415       .  A
C1519      C1520   1.398       .  A
C1519      S1523   1.810       .  S
C1520      H1524   1.083   1_455  S
S1521      H1526   1.407       .  S
S1523      H1527   1.406       .  S
C1529      C1530   1.403       .  A
C1529      C1534   1.401       .  A
C1529      H1539   1.084       .  S
C1530      C1535   1.482       .  S
C1530      C1531   1.413       .  A
C1531      C1532   1.401       .  A
C1531      S1536   1.804       .  S
C1532      C1533   1.403       .  A
C1532      H1537   1.084       .  S
C1533      C1534   1.414       .  A
C1534      S1538   1.804       .  S
C1535      C1540   1.410       .  A
C1535      C1544   1.399       .  A
S1536      H1552   1.405       .  S
S1538      H1549   1.407       .  S
C1540      C1541   1.407       .  A
C1540      S1545   1.805       .  S
C1541      C1542   1.406       .  A
C1541      H1546   1.083       .  S
C1542      C1543   1.416       .  A
C1543      C1544   1.397       .  A
C1543      S1547   1.803       .  S
C1544      H1548   1.084       .  S
S1545      H1550   1.407       .  S
S1547      H1551   1.407       .  S
C1553      C1554   1.399       .  A
C1553      C1558   1.396       .  A
C1553      H1563   1.084       .  S
C1554      C1559   1.477       .  S
C1554      C1555   1.415       .  A
C1555      C1556   1.401       .  A
C1555      S1560   1.806       .  S
C1556      C1557   1.403       .  A
C1556      H1561   1.084       .  S
C1557      C1558   1.416       .  A
C1558      S1562   1.804       .  S
C1559      C1564   1.405       .  A
C1559      C1568   1.403       .  A
S1560      H1576   1.404       .  S
S1562      H1573   1.408       .  S
C1564      C1565   1.399       .  A
C1564      S1569   1.807       .  S
C1565      C1566   1.409       .  A
C1565      H1570   1.083       .  S
C1566      C1567   1.417       .  A
C1567      C1568   1.402       .  A
C1567      S1571   1.802       .  S
C1568      H1572   1.084       .  S
S1569      H1574   1.406       .  S
S1571      H1575   1.407       .  S
C1577      C1578   1.400       .  A
C1577      C1582   1.398       .  A
C1577      H1587   1.084       .  S
C1578      C1583   1.478       .  S
C1578      C1579   1.414       .  A
C1579      C1580   1.403       .  A
C1579      S1584   1.808       .  S
C1580      C1581   1.406       .  A
C1580      H1585   1.084       .  S
C1581      C1582   1.416       .  A
C1582      S1586   1.802       .  S
C1583      C1588   1.408       .  A
C1583      C1592   1.401       .  A
S1584      H1600   1.402       .  S
S1586      H1597   1.407   1_554  S
C1588      C1589   1.403       .  A
C1588      S1593   1.806       .  S
C1589      C1590   1.407       .  A
C1589      H1594   1.082       .  S
C1590      C1591   1.414       .  A
C1591      C1592   1.399       .  A
C1591      S1595   1.804       .  S
C1592      H1596   1.084       .  S
S1593      H1598   1.407       .  S
S1595      H1599   1.407       .  S
C1601      C1602   1.402       .  A
C1601      C1606   1.404       .  A
C1601      H1611   1.084       .  S
C1602      C1607   1.485   1_655  S
C1602      C1603   1.411       .  A
C1603      C1604   1.400       .  A
C1603      S1608   1.804       .  S
C1604      C1605   1.407       .  A
C1604      H1609   1.084       .  S
C1605      C1606   1.420       .  A
C1606      S1610   1.803       .  S
C1607      C1612   1.410       .  A
C1607      C1616   1.402       .  A
S1608      H1624   1.406   1_655  S
S1610      H1621   1.407       .  S
C1612      C1613   1.407       .  A
C1612      S1617   1.805       .  S
C1613      C1614   1.406       .  A
C1613      H1618   1.083       .  S
C1614      C1615   1.416       .  A
C1615      C1616   1.399       .  A
C1615      S1619   1.804   1_556  S
C1616      H1620   1.084       .  S
S1617      H1622   1.407       .  S
S1619      H1623   1.407       .  S
C1625      C1626   1.404       .  A
C1625      C1630   1.405       .  A
C1625      H1635   1.084       .  S
C1626      C1631   1.483       .  S
C1626      C1627   1.411       .  A
C1627      C1628   1.396       .  A
C1627      S1632   1.805       .  S
C1628      C1629   1.405       .  A
C1628      H1633   1.084       .  S
C1629      C1630   1.419       .  A
C1630      S1634   1.804       .  S
C1631      C1636   1.411       .  A
C1631      C1640   1.402       .  A
S1632      H1648   1.406       .  S
S1634      H1645   1.404       .  S
C1636      C1637   1.401       .  A
C1636      S1641   1.807       .  S
C1637      C1638   1.403       .  A
C1637      H1642   1.083       .  S
C1638      C1639   1.417       .  A
C1639      C1640   1.402       .  A
C1639      S1643   1.804       .  S
C1640      H1644   1.084       .  S
S1641      H1646   1.407       .  S
S1643      H1647   1.406       .  S
C1649      C1650   1.399       .  A
C1649      C1654   1.397       .  A
C1649      H1659   1.084       .  S
C1650      C1655   1.475       .  S
C1650      C1651   1.412       .  A
C1651      C1652   1.399       .  A
C1651      S1656   1.803   1_556  S
C1652      C1653   1.402       .  A
C1652      H1657   1.084       .  S
C1653      C1654   1.416       .  A
C1654      S1658   1.805       .  S
C1655      C1660   1.407       .  A
C1655      C1664   1.399       .  A
S1656      H1672   1.405       .  S
S1658      H1669   1.407       .  S
C1660      C1661   1.402       .  A
C1660      S1665   1.805       .  S
C1661      C1662   1.406       .  A
C1661      H1666   1.083       .  S
C1662      C1663   1.416       .  A
C1663      C1664   1.396       .  A
C1663      S1667   1.801       .  S
C1664      H1668   1.084       .  S
S1665      H1670   1.407       .  S
S1667      H1671   1.407       .  S
C1673      C1674   1.401       .  A
C1673      C1678   1.407       .  A
C1673      H1683   1.083       .  S
C1674      C1679   1.475   1_455  S
C1674      C1675   1.406       .  A
C1675      C1676   1.393       .  A
C1675      S1680   1.806       .  S
C1676      C1677   1.410       .  A
C1676      H1681   1.083       .  S
C1677      C1678   1.421       .  A
C1678      S1682   1.809       .  S
C1679      C1684   1.407       .  A
C1679      C1688   1.399       .  A
S1680      H1696   1.402   1_455  S
S1682      H1693   1.407       .  S
C1684      C1685   1.403       .  A
C1684      S1689   1.805       .  S
C1685      C1686   1.408       .  A
C1685      H1690   1.082       .  S
C1686      C1687   1.417       .  A
C1687      C1688   1.396       .  A
C1687      S1691   1.804       .  S
C1688      H1692   1.084   1_655  S
S1689      H1694   1.407       .  S
S1691      H1695   1.407       .  S
C1697      C1698   1.404       .  A
C1697      C1702   1.407       .  A
C1697      H1707   1.083       .  S
C1698      C1703   1.479       .  S
C1698      C1699   1.410       .  A
C1699      C1700   1.394       .  A
C1699      S1704   1.805       .  S
C1700      C1701   1.404       .  A
C1700      H1705   1.084       .  S
C1701      C1702   1.414       .  A
C1702      S1706   1.808       .  S
C1703      C1708   1.409       .  A
C1703      C1712   1.399       .  A
S1704      H1720   1.406       .  S
S1706      H1717   1.407       .  S
C1708      C1709   1.407       .  A
C1708      S1713   1.805       .  S
C1709      C1710   1.406       .  A
C1709      H1714   1.083       .  S
C1710      C1711   1.416       .  A
C1711      C1712   1.393       .  A
C1711      S1715   1.805       .  S
C1712      H1716   1.084       .  S
S1713      H1718   1.407       .  S
S1715      H1719   1.405       .  S
C1721      C1722   1.400       .  A
C1721      C1726   1.397       .  A
C1721      H1731   1.084       .  S
C1722      C1727   1.480       .  S
C1722      C1723   1.414       .  A
C1723      C1724   1.405       .  A
C1723      S1728   1.804       .  S
C1724      C1725   1.405       .  A
C1724      H1729   1.084       .  S
C1725      C1726   1.415       .  A
C1726      S1730   1.804       .  S
C1727      C1732   1.411       .  A
C1727      C1736   1.398       .  A
S1728      H1744   1.404       .  S
S1730      H1741   1.407       .  S
C1732      C1733   1.411       .  A
C1732      S1737   1.804       .  S
C1733      C1734   1.407       .  A
C1733      H1738   1.083       .  S
C1734      C1735   1.416       .  A
C1735      C1736   1.394       .  A
C1735      S1739   1.805       .  S
C1736      H1740   1.084       .  S
S1737      H1742   1.407       .  S
S1739      H1743   1.407       .  S
C1745      C1746   1.399       .  A
C1745      C1750   1.391       .  A
C1745      H1755   1.084       .  S
C1746      C1751   1.475       .  S
C1746      C1747   1.411       .  A
C1747      C1748   1.401       .  A
C1747      S1752   1.803       .  S
C1748      C1749   1.405       .  A
C1748      H1753   1.084       .  S
C1749      C1750   1.415       .  A
C1750      S1754   1.804       .  S
C1751      C1756   1.407       .  A
C1751      C1760   1.401       .  A
S1752      H1768   1.406       .  S
S1754      H1765   1.407       .  S
C1756      C1757   1.399       .  A
C1756      S1761   1.808       .  S
C1757      C1758   1.408       .  A
C1757      H1762   1.082       .  S
C1758      C1759   1.415       .  A
C1759      C1760   1.398       .  A
C1759      S1763   1.803       .  S
C1760      H1764   1.084       .  S
S1761      H1766   1.407       .  S
S1763      H1767   1.407       .  S
C1769      C1770   1.408       .  A
C1769      C1774   1.414       .  A
C1769      H1779   1.084       .  S
C1770      C1775   1.501       .  S
C1770      C1771   1.413       .  A
C1771      C1772   1.404       .  A
C1771      S1776   1.805       .  S
C1772      C1773   1.408       .  A
C1772      H1777   1.084       .  S
C1773      C1774   1.418       .  A
C1774      S1778   1.802       .  S
C1775      C1780   1.410       .  A
C1775      C1784   1.404       .  A
S1776      H1792   1.406       .  S
S1778      H1789   1.406       .  S
C1780      C1781   1.409       .  A
C1780      S1785   1.808       .  S
C1781      C1782   1.414       .  A
C1781      H1786   1.082       .  S
C1782      C1783   1.424       .  A
C1783      C1784   1.411       .  A
C1783      S1787   1.800       .  S
C1784      H1788   1.083       .  S
S1785      H1790   1.407       .  S
S1787      H1791   1.407       .  S
C1793      C1794   1.408       .  A
C1793      C1798   1.413       .  A
C1793      H1803   1.083       .  S
C1794      C1799   1.492       .  S
C1794      C1795   1.410       .  A
C1795      C1796   1.397       .  A
C1795      S1800   1.805       .  S
C1796      C1797   1.408       .  A
C1796      H1801   1.084       .  S
C1797      C1798   1.418       .  A
C1798      S1802   1.801       .  S
C1799      C1804   1.411       .  A
C1799      C1808   1.403       .  A
S1800      H1816   1.404       .  S
S1802      H1813   1.407       .  S
C1804      C1805   1.410       .  A
C1804      S1809   1.805       .  S
C1805      C1806   1.406       .  A
C1805      H1810   1.083       .  S
C1806      C1807   1.416       .  A
C1807      C1808   1.404       .  A
C1807      S1811   1.804       .  S
C1808      H1812   1.084       .  S
S1809      H1814   1.407       .  S
S1811      H1815   1.407       .  S
C1817      C1818   1.408       .  A
C1817      C1822   1.417       .  A
C1817      H1827   1.082       .  S
C1818      C1823   1.501       .  S
C1818      C1819   1.413       .  A
C1819      C1820   1.400       .  A
C1819      S1824   1.804       .  S
C1820      C1821   1.407       .  A
C1820      H1825   1.084       .  S
C1821      C1822   1.420       .  A
C1822      S1826   1.806       .  S
C1823      C1828   1.415       .  A
C1823      C1832   1.402       .  A
S1824      H1840   1.406       .  S
S1826      H1837   1.407       .  S
C1828      C1829   1.418       .  A
C1828      S1833   1.804       .  S
C1829      C1830   1.408       .  A
C1829      H1834   1.082       .  S
C1830      C1831   1.418       .  A
C1831      C1832   1.399       .  A
C1831      S1835   1.804       .  S
C1832      H1836   1.084       .  S
S1833      H1838   1.407       .  S
S1835      H1839   1.407       .  S
C1841      C1842   1.400       .  A
C1841      C1846   1.398       .  A
C1841      H1851   1.084       .  S
C1842      C1847   1.477       .  S
C1842      C1843   1.413       .  A
C1843      C1844   1.400       .  A
C1843      S1848   1.805       .  S
C1844      C1845   1.405       .  A
C1844      H1849   1.084       .  S
C1845      C1846   1.415       .  A
C1846      S1850   1.804       .  S
C1847      C1852   1.405       .  A
C1847      C1856   1.402       .  A
S1848      H1864   1.405       .  S
S1850      H1861   1.407       .  S
C1852      C1853   1.399       .  A
C1852      S1857   1.808       .  S
C1853      C1854   1.409       .  A
C1853      H1858   1.082       .  S
C1854      C1855   1.417       .  A
C1855      C1856   1.402       .  A
C1855      S1859   1.802       .  S
C1856      H1860   1.084       .  S
S1857      H1862   1.406       .  S
S1859      H1863   1.407       .  S
C1865      C1866   1.406       .  A
C1865      C1870   1.402       .  A
C1865      H1875   1.084       .  S
C1866      C1871   1.487       .  S
C1866      C1867   1.410       .  A
C1867      C1868   1.399       .  A
C1867      S1872   1.803       .  S
C1868      C1869   1.407       .  A
C1868      H1873   1.084       .  S
C1869      C1870   1.415       .  A
C1870      S1874   1.800       .  S
C1871      C1876   1.408       .  A
C1871      C1880   1.407       .  A
S1872      H1888   1.407       .  S
S1874      H1885   1.404       .  S
C1876      C1877   1.400       .  A
C1876      S1881   1.808       .  S
C1877      C1878   1.409       .  A
C1877      H1882   1.083       .  S
C1878      C1879   1.415       .  A
C1879      C1880   1.405       .  A
C1879      S1883   1.802       .  S
C1880      H1884   1.084       .  S
S1881      H1886   1.407       .  S
S1883      H1887   1.407       .  S
C1889      C1890   1.407       .  A
C1889      C1894   1.411       .  A
C1889      H1899   1.083       .  S
C1890      C1895   1.495       .  S
C1890      C1891   1.412       .  A
C1891      C1892   1.400       .  A
C1891      S1896   1.806       .  S
C1892      C1893   1.409       .  A
C1892      H1897   1.084       .  S
C1893      C1894   1.417       .  A
C1894      S1898   1.798       .  S
C1895      C1900   1.413       .  A
C1895      C1904   1.403       .  A
S1896      H1912   1.406       .  S
S1898      H1909   1.407       .  S
C1900      C1901   1.412       .  A
C1900      S1905   1.804       .  S
C1901      C1902   1.407       .  A
C1901      H1906   1.083       .  S
C1902      C1903   1.416       .  A
C1903      C1904   1.401       .  A
C1903      S1907   1.804       .  S
C1904      H1908   1.084       .  S
S1905      H1910   1.407       .  S
S1907      H1911   1.408       .  S
C1913      C1914   1.403       .  A
C1913      C1918   1.400       .  A
C1913      H1923   1.084       .  S
C1914      C1919   1.485       .  S
C1914      C1915   1.415       .  A
C1915      C1916   1.405       .  A
C1915      S1920   1.805       .  S
C1916      C1917   1.405       .  A
C1916      H1921   1.084       .  S
C1917      C1918   1.412       .  A
C1918      S1922   1.804       .  S
C1919      C1924   1.409       .  A
C1919      C1928   1.402       .  A
S1920      H1936   1.404       .  S
S1922      H1933   1.408       .  S
C1924      C1925   1.407       .  A
C1924      S1929   1.805       .  S
C1925      C1926   1.408       .  A
C1925      H1930   1.083       .  S
C1926      C1927   1.417       .  A
C1927      C1928   1.401       .  A
C1927      S1931   1.804       .  S
C1928      H1932   1.084       .  S
S1929      H1934   1.407       .  S
S1931      H1935   1.407       .  S
C1937      C1938   1.402       .  A
C1937      C1942   1.399       .  A
C1937      H1947   1.084       .  S
C1938      C1943   1.484       .  S
C1938      C1939   1.412       .  A
C1939      C1940   1.402       .  A
C1939      S1944   1.803       .  S
C1940      C1941   1.406       .  A
C1940      H1945   1.084       .  S
C1941      C1942   1.417       .  A
C1942      S1946   1.804       .  S
C1943      C1948   1.411       .  A
C1943      C1952   1.401       .  A
S1944      H1960   1.407       .  S
S1946      H1957   1.408       .  S
C1948      C1949   1.409       .  A
C1948      S1953   1.804       .  S
C1949      C1950   1.404       .  A
C1949      H1954   1.083       .  S
C1950      C1951   1.413       .  A
C1951      C1952   1.396       .  A
C1951      S1955   1.805       .  S
C1952      H1956   1.084       .  S
S1953      H1958   1.407       .  S
S1955      H1959   1.407       .  S
C1961      C1962   1.400       .  A
C1961      C1966   1.397       .  A
C1961      H1971   1.084       .  S
C1962      C1967   1.477       .  S
C1962      C1963   1.413       .  A
C1963      C1964   1.400       .  A
C1963      S1968   1.805       .  S
C1964      C1965   1.403       .  A
C1964      H1969   1.084       .  S
C1965      C1966   1.415       .  A
C1966      S1970   1.805       .  S
C1967      C1972   1.404       .  A
C1967      C1976   1.401       .  A
S1968      H1984   1.406       .  S
S1970      H1981   1.402       .  S
C1972      C1973   1.398       .  A
C1972      S1977   1.808       .  S
C1973      C1974   1.412       .  A
C1973      H1978   1.082       .  S
C1974      C1975   1.421       .  A
C1975      C1976   1.401       .  A
C1975      S1979   1.802       .  S
C1976      H1980   1.084       .  S
S1977      H1982   1.407       .  S
S1979      H1983   1.401       .  S
C1985      C1986   1.403       .  A
C1985      C1990   1.404       .  A
C1985      H1995   1.084       .  S
C1986      C1991   1.485       .  S
C1986      C1987   1.411       .  A
C1987      C1988   1.401       .  A
C1987      S1992   1.805       .  S
C1988      C1989   1.408       .  A
C1988      H1993   1.084       .  S
C1989      C1990   1.416       .  A
C1990      S1994   1.802       .  S
C1991      C1996   1.409       .  A
C1991      C2000   1.403       .  A
S1992      H2008   1.403       .  S
S1994      H2005   1.407       .  S
C1996      C1997   1.404   1_554  A
C1996      S2001   1.806       .  S
C1997      C1998   1.406       .  A
C1997      H2002   1.083       .  S
C1998      C1999   1.414       .  A
C1999      C2000   1.404   1_556  A
C1999      S2003   1.803       .  S
C2000      H2004   1.084       .  S
S2001      H2006   1.407       .  S
S2003      H2007   1.406       .  S
C2009      C2010   1.402       .  A
C2009      C2014   1.402       .  A
C2009      H2019   1.084       .  S
C2010      C2015   1.480       .  S
C2010      C2011   1.412       .  A
C2011      C2012   1.396       .  A
C2011      S2016   1.805       .  S
C2012      C2013   1.404       .  A
C2012      H2017   1.084       .  S
C2013      C2014   1.418       .  A
C2014      S2018   1.804       .  S
C2015      C2020   1.409       .  A
C2015      C2024   1.400       .  A
S2016      H2032   1.406       .  S
S2018      H2029   1.403       .  S
C2020      C2021   1.401       .  A
C2020      S2025   1.808       .  S
C2021      C2022   1.407       .  A
C2021      H2026   1.083       .  S
C2022      C2023   1.418       .  A
C2023      C2024   1.401       .  A
C2023      S2027   1.797       .  S
C2024      H2028   1.084       .  S
S2025      H2030   1.406       .  S
S2027      H2031   1.407       .  S
C2033      C2034   1.405       .  A
C2033      C2038   1.411       .  A
C2033      H2043   1.084       .  S
C2034      C2039   1.501       .  S
C2034      C2035   1.413       .  A
C2035      C2036   1.405       .  A
C2035      S2040   1.805       .  S
C2036      C2037   1.413       .  A
C2036      H2041   1.083       .  S
C2037      C2038   1.424       .  A
C2038      S2042   1.800       .  S
C2039      C2044   1.410       .  A
C2039      C2048   1.409       .  A
S2040      H2056   1.405       .  S
S2042      H2053   1.408       .  S
C2044      C2045   1.407       .  A
C2044      S2049   1.807       .  S
C2045      C2046   1.409       .  A
C2045      H2050   1.083       .  S
C2046      C2047   1.416       .  A
C2047      C2048   1.412       .  A
C2047      S2051   1.801       .  S
C2048      H2052   1.083       .  S
S2049      H2054   1.407       .  S
S2051      H2055   1.406       .  S
C2057      C2058   1.409       .  A
C2057      C2062   1.413       .  A
C2057      H2067   1.083       .  S
C2058      C2063   1.506   1_565  S
C2058      C2059   1.414       .  A
C2059      C2060   1.404       .  A
C2059      S2064   1.805       .  S
C2060      C2061   1.412       .  A
C2060      H2065   1.083       .  S
C2061      C2062   1.421       .  A
C2062      S2066   1.800       .  S
C2063      C2068   1.415       .  A
C2063      C2072   1.409       .  A
S2064      H2080   1.406   1_565  S
S2066      H2077   1.407       .  S
C2068      C2069   1.412       .  A
C2068      S2073   1.806       .  S
C2069      C2070   1.405       .  A
C2069      H2074   1.083       .  S
C2070      C2071   1.415       .  A
C2071      C2072   1.408       .  A
C2071      S2075   1.805       .  S
C2072      H2076   1.084       .  S
S2073      H2078   1.407       .  S
S2075      H2079   1.405       .  S
C2081      C2082   1.402       .  A
C2081      C2086   1.397       .  A
C2081      H2091   1.084       .  S
C2082      C2087   1.488       .  S
C2082      C2083   1.415       .  A
C2083      C2084   1.406       .  A
C2083      S2088   1.803       .  S
C2084      C2085   1.405       .  A
C2084      H2089   1.084       .  S
C2085      C2086   1.414       .  A
C2086      S2090   1.804       .  S
C2087      C2092   1.413       .  A
C2087      C2096   1.401       .  A
S2088      H2104   1.407       .  S
S2090      H2101   1.407       .  S
C2092      C2093   1.410       .  A
C2092      S2097   1.805       .  S
C2093      C2094   1.406       .  A
C2093      H2098   1.082       .  S
C2094      C2095   1.414       .  A
C2095      C2096   1.397       .  A
C2095      S2099   1.802       .  S
C2096      H2100   1.084       .  S
S2097      H2102   1.407       .  S
S2099      H2103   1.407       .  S
C2105      C2106   1.403       .  A
C2105      C2110   1.402   1_556  A
C2105      H2115   1.084       .  S
C2106      C2111   1.475       .  S
C2106      C2107   1.409       .  A
C2107      C2108   1.394   1_556  A
C2107      S2112   1.806       .  S
C2108      C2109   1.406       .  A
C2108      H2113   1.084       .  S
C2109      C2110   1.415       .  A
C2110      S2114   1.803       .  S
C2111      C2116   1.408       .  A
C2111      C2120   1.399       .  A
S2112      H2128   1.405       .  S
S2114      H2125   1.407       .  S
C2116      C2117   1.403       .  A
C2116      S2121   1.806       .  S
C2117      C2118   1.406       .  A
C2117      H2122   1.083       .  S
C2118      C2119   1.417       .  A
C2119      C2120   1.397       .  A
C2119      S2123   1.804       .  S
C2120      H2124   1.084       .  S
S2121      H2126   1.407       .  S
S2123      H2127   1.407       .  S
C2129      C2130   1.400       .  A
C2129      C2134   1.399       .  A
C2129      H2139   1.084       .  S
C2130      C2135   1.484       .  S
C2130      C2131   1.414       .  A
C2131      C2132   1.404       .  A
C2131      S2136   1.804       .  S
C2132      C2133   1.406       .  A
C2132      H2137   1.084       .  S
C2133      C2134   1.417       .  A
C2134      S2138   1.804       .  S
C2135      C2140   1.409       .  A
C2135      C2144   1.400       .  A
S2136      H2152   1.405       .  S
S2138      H2149   1.408       .  S
C2140      C2141   1.406       .  A
C2140      S2145   1.805       .  S
C2141      C2142   1.408       .  A
C2141      H2146   1.082       .  S
C2142      C2143   1.420       .  A
C2143      C2144   1.399       .  A
C2143      S2147   1.804       .  S
C2144      H2148   1.084       .  S
S2145      H2150   1.407       .  S
S2147      H2151   1.408       .  S
C2153      C2154   1.402       .  A
C2153      C2158   1.404       .  A
C2153      H2163   1.084       .  S
C2154      C2159   1.481   1_545  S
C2154      C2155   1.412       .  A
C2155      C2156   1.398       .  A
C2155      S2160   1.806       .  S
C2156      C2157   1.405       .  A
C2156      H2161   1.084       .  S
C2157      C2158   1.417       .  A
C2158      S2162   1.802       .  S
C2159      C2164   1.406       .  A
C2159      C2168   1.403       .  A
S2160      H2176   1.404   1_545  S
S2162      H2173   1.407       .  S
C2164      C2165   1.402       .  A
C2164      S2169   1.807   1_565  S
C2165      C2166   1.408       .  A
C2165      H2170   1.083       .  S
C2166      C2167   1.417       .  A
C2167      C2168   1.404       .  A
C2167      S2171   1.801       .  S
C2168      H2172   1.084       .  S
S2169      H2174   1.406   1_545  S
S2171      H2175   1.407       .  S
C2177      C2178   1.408       .  A
C2177      C2182   1.412       .  A
C2177      H2187   1.083       .  S
C2178      C2183   1.499       .  S
C2178      C2179   1.414       .  A
C2179      C2180   1.401       .  A
C2179      S2184   1.805       .  S
C2180      C2181   1.408       .  A
C2180      H2185   1.084       .  S
C2181      C2182   1.417       .  A
C2182      S2186   1.798       .  S
C2183      C2188   1.412       .  A
C2183      C2192   1.401       .  A
S2184      H2200   1.406       .  S
S2186      H2197   1.406       .  S
C2188      C2189   1.413       .  A
C2188      S2193   1.805       .  S
C2189      C2190   1.412       .  A
C2189      H2194   1.082       .  S
C2190      C2191   1.424       .  A
C2191      C2192   1.402       .  A
C2191      S2195   1.803       .  S
C2192      H2196   1.084       .  S
S2193      H2198   1.407       .  S
S2195      H2199   1.407       .  S
C2201      C2202   1.405       .  A
C2201      C2206   1.407       .  A
C2201      H2211   1.084       .  S
C2202      C2207   1.493   1_545  S
C2202      C2203   1.413       .  A
C2203      C2204   1.402       .  A
C2203      S2208   1.805       .  S
C2204      C2205   1.408       .  A
C2204      H2209   1.084       .  S
C2205      C2206   1.419       .  A
C2206      S2210   1.802       .  S
C2207      C2212   1.410       .  A
C2207      C2216   1.406       .  A
S2208      H2224   1.405   1_545  S
S2210      H2221   1.407       .  S
C2212      C2213   1.406       .  A
C2212      S2217   1.807   1_565  S
C2213      C2214   1.407       .  A
C2213      H2218   1.083       .  S
C2214      C2215   1.415       .  A
C2215      C2216   1.406       .  A
C2215      S2219   1.802       .  S
C2216      H2220   1.084       .  S
S2217      H2222   1.407   1_545  S
S2219      H2223   1.406       .  S
C2225      C2226   1.401       .  A
C2225      C2230   1.399       .  A
C2225      H2235   1.084       .  S
C2226      C2231   1.478       .  S
C2226      C2227   1.412       .  A
C2227      C2228   1.398       .  A
C2227      S2232   1.805       .  S
C2228      C2229   1.405       .  A
C2228      H2233   1.084       .  S
C2229      C2230   1.416       .  A
C2230      S2234   1.803       .  S
C2231      C2236   1.408       .  A
C2231      C2240   1.401       .  A
S2232      H2248   1.406       .  S
S2234      H2245   1.407       .  S
C2236      C2237   1.403       .  A
C2236      S2241   1.805       .  S
C2237      C2238   1.407       .  A
C2237      H2242   1.083       .  S
C2238      C2239   1.416       .  A
C2239      C2240   1.396       .  A
C2239      S2243   1.804       .  S
C2240      H2244   1.084       .  S
S2241      H2246   1.408       .  S
S2243      H2247   1.407       .  S
C2249      C2250   1.407       .  A
C2249      C2254   1.406       .  A
C2249      H2259   1.084       .  S
C2250      C2255   1.504       .  S
C2250      C2251   1.419       .  A
C2251      C2252   1.410       .  A
C2251      S2256   1.804       .  S
C2252      C2253   1.406       .  A
C2252      H2257   1.084       .  S
C2253      C2254   1.416       .  A
C2254      S2258   1.804       .  S
C2255      C2260   1.416       .  A
C2255      C2264   1.405       .  A
S2256      H2272   1.404       .  S
S2258      H2269   1.407       .  S
C2260      C2261   1.414       .  A
C2260      S2265   1.804       .  S
C2261      C2262   1.407       .  A
C2261      H2266   1.083       .  S
C2262      C2263   1.414       .  A
C2263      C2264   1.404       .  A
C2263      S2267   1.804       .  S
C2264      H2268   1.084       .  S
S2265      H2270   1.407       .  S
S2267      H2271   1.407       .  S
C2273      C2274   1.400       .  A
C2273      C2278   1.399       .  A
C2273      H2283   1.084       .  S
C2274      C2279   1.477       .  S
C2274      C2275   1.412       .  A
C2275      C2276   1.398       .  A
C2275      S2280   1.804       .  S
C2276      C2277   1.403       .  A
C2276      H2281   1.083       .  S
C2277      C2278   1.417       .  A
C2278      S2282   1.804       .  S
C2279      C2284   1.406       .  A
C2279      C2288   1.401       .  A
S2280      H2296   1.406       .  S
S2282      H2293   1.407       .  S
C2284      C2285   1.400       .  A
C2284      S2289   1.808       .  S
C2285      C2286   1.410       .  A
C2285      H2290   1.082       .  S
C2286      C2287   1.419       .  A
C2287      C2288   1.400       .  A
C2287      S2291   1.802       .  S
C2288      H2292   1.084       .  S
S2289      H2294   1.407       .  S
S2291      H2295   1.407       .  S
C2297      C2298   1.402       .  A
C2297      C2302   1.400       .  A
C2297      H2307   1.084       .  S
C2298      C2303   1.477       .  S
C2298      C2299   1.411       .  A
C2299      C2300   1.398       .  A
C2299      S2304   1.803       .  S
C2300      C2301   1.404       .  A
C2300      H2305   1.084       .  S
C2301      C2302   1.412       .  A
C2302      S2306   1.803       .  S
C2303      C2308   1.409       .  A
C2303      C2312   1.398       .  A
S2304      H2320   1.404       .  S
S2306      H2317   1.406       .  S
C2308      C2309   1.404       .  A
C2308      S2313   1.806       .  S
C2309      C2310   1.406       .  A
C2309      H2314   1.083       .  S
C2310      C2311   1.420       .  A
C2311      C2312   1.398       .  A
C2311      S2315   1.804       .  S
C2312      H2316   1.084       .  S
S2313      H2318   1.407       .  S
S2315      H2319   1.406       .  S
C2321      C2322   1.405       .  A
C2321      C2326   1.409       .  A
C2321      H2331   1.084       .  S
C2322      C2327   1.498   1_545  S
C2322      C2323   1.413       .  A
C2323      C2324   1.404       .  A
C2323      S2328   1.805       .  S
C2324      C2325   1.410       .  A
C2324      H2329   1.084       .  S
C2325      C2326   1.421       .  A
C2326      S2330   1.801       .  S
C2327      C2332   1.409   1_556  A
C2327      C2336   1.407       .  A
S2328      H2344   1.405   1_545  S
S2330      H2341   1.407       .  S
C2332      C2333   1.407       .  A
C2332      S2337   1.806   1_565  S
C2333      C2334   1.408       .  A
C2333      H2338   1.083       .  S
C2334      C2335   1.417   1_554  A
C2335      C2336   1.414       .  A
C2335      S2339   1.804       .  S
C2336      H2340   1.083       .  S
S2337      H2342   1.406   1_545  S
S2339      H2343   1.407       .  S
C2345      C2346   1.401       .  A
C2345      C2350   1.401       .  A
C2345      H2355   1.084       .  S
C2346      C2351   1.484       .  S
C2346      C2347   1.413       .  A
C2347      C2348   1.400       .  A
C2347      S2352   1.804       .  S
C2348      C2349   1.405       .  A
C2348      H2353   1.084       .  S
C2349      C2350   1.418       .  A
C2350      S2354   1.799       .  S
C2351      C2356   1.410       .  A
C2351      C2360   1.400       .  A
S2352      H2368   1.406       .  S
S2354      H2365   1.407       .  S
C2356      C2357   1.404       .  A
C2356      S2361   1.807       .  S
C2357      C2358   1.406       .  A
C2357      H2362   1.083       .  S
C2358      C2359   1.419       .  A
C2359      C2360   1.401       .  A
C2359      S2363   1.803       .  S
C2360      H2364   1.084       .  S
S2361      H2366   1.406       .  S
S2363      H2367   1.405       .  S
C2369      C2370   1.403       .  A
C2369      C2374   1.399       .  A
C2369      H2379   1.084       .  S
C2370      C2375   1.478       .  S
C2370      C2371   1.412       .  A
C2371      C2372   1.400       .  A
C2371      S2376   1.804       .  S
C2372      C2373   1.403       .  A
C2372      H2377   1.084       .  S
C2373      C2374   1.413       .  A
C2374      S2378   1.804       .  S
C2375      C2380   1.406       .  A
C2375      C2384   1.401       .  A
S2376      H2392   1.404       .  S
S2378      H2389   1.407       .  S
C2380      C2381   1.401       .  A
C2380      S2385   1.807       .  S
C2381      C2382   1.408       .  A
C2381      H2386   1.083       .  S
C2382      C2383   1.416       .  A
C2383      C2384   1.401       .  A
C2383      S2387   1.798       .  S
C2384      H2388   1.084       .  S
S2385      H2390   1.407       .  S
S2387      H2391   1.405       .  S
C2393      C2394   1.400       .  A
C2393      C2398   1.396       .  A
C2393      H2403   1.084       .  S
C2394      C2399   1.485       .  S
C2394      C2395   1.416       .  A
C2395      C2396   1.409       .  A
C2395      S2400   1.804       .  S
C2396      C2397   1.406       .  A
C2396      H2401   1.084       .  S
C2397      C2398   1.415       .  A
C2398      S2402   1.805       .  S
C2399      C2404   1.410       .  A
C2399      C2408   1.402       .  A
S2400      H2416   1.405       .  S
S2402      H2413   1.407       .  S
C2404      C2405   1.406       .  A
C2404      S2409   1.805       .  S
C2405      C2406   1.404       .  A
C2405      H2410   1.083       .  S
C2406      C2407   1.415       .  A
C2407      C2408   1.402       .  A
C2407      S2411   1.800       .  S
C2408      H2412   1.084       .  S
S2409      H2414   1.407       .  S
S2411      H2415   1.407       .  S
C2417      C2418   1.398       .  A
C2417      C2422   1.395       .  A
C2417      H2427   1.084       .  S
C2418      C2423   1.477       .  S
C2418      C2419   1.412       .  A
C2419      C2420   1.404       .  A
C2419      S2424   1.805       .  S
C2420      C2421   1.407       .  A
C2420      H2425   1.084       .  S
C2421      C2422   1.419       .  A
C2422      S2426   1.806       .  S
C2423      C2428   1.408       .  A
C2423      C2432   1.402       .  A
S2424      H2440   1.403       .  S
S2426      H2437   1.403       .  S
C2428      C2429   1.402       .  A
C2428      S2433   1.806       .  S
C2429      C2430   1.405       .  A
C2429      H2434   1.083       .  S
C2430      C2431   1.414       .  A
C2431      C2432   1.400       .  A
C2431      S2435   1.803       .  S
C2432      H2436   1.084       .  S
S2433      H2438   1.407       .  S
S2435      H2439   1.407       .  S
C2441      C2442   1.402       .  A
C2441      C2446   1.402       .  A
C2441      H2451   1.084       .  S
C2442      C2447   1.488       .  S
C2442      C2443   1.415       .  A
C2443      C2444   1.405       .  A
C2443      S2448   1.803       .  S
C2444      C2445   1.403       .  A
C2444      H2449   1.084       .  S
C2445      C2446   1.415       .  A
C2446      S2450   1.804       .  S
C2447      C2452   1.409       .  A
C2447      C2456   1.404       .  A
S2448      H2464   1.405       .  S
S2450      H2461   1.407       .  S
C2452      C2453   1.403       .  A
C2452      S2457   1.808       .  S
C2453      C2454   1.407       .  A
C2453      H2458   1.082       .  S
C2454      C2455   1.419       .  A
C2455      C2456   1.408       .  A
C2455      S2459   1.800       .  S
C2456      H2460   1.084       .  S
S2457      H2462   1.406       .  S
S2459      H2463   1.408       .  S
C2465      C2466   1.399       .  A
C2465      C2470   1.396       .  A
C2465      H2475   1.084       .  S
C2466      C2471   1.473       .  S
C2466      C2467   1.413       .  A
C2467      C2468   1.400       .  A
C2467      S2472   1.806       .  S
C2468      C2469   1.402       .  A
C2468      H2473   1.084       .  S
C2469      C2470   1.414       .  A
C2470      S2474   1.802       .  S
C2471      C2476   1.407       .  A
C2471      C2480   1.399       .  A
S2472      H2488   1.403       .  S
S2474      H2485   1.406       .  S
C2476      C2477   1.403       .  A
C2476      S2481   1.805       .  S
C2477      C2478   1.406       .  A
C2477      H2482   1.083       .  S
C2478      C2479   1.417       .  A
C2479      C2480   1.396       .  A
C2479      S2483   1.804       .  S
C2480      H2484   1.084       .  S
S2481      H2486   1.407       .  S
S2483      H2487   1.407       .  S
C2489      C2490   1.403       .  A
C2489      C2494   1.401       .  A
C2489      H2499   1.084       .  S
C2490      C2495   1.481       .  S
C2490      C2491   1.411       .  A
C2491      C2492   1.400       .  A
C2491      S2496   1.806       .  S
C2492      C2493   1.405       .  A
C2492      H2497   1.084       .  S
C2493      C2494   1.415       .  A
C2494      S2498   1.807       .  S
C2495      C2500   1.405       .  A
C2495      C2504   1.402       .  A
S2496      H2512   1.404       .  S
S2498      H2509   1.400       .  S
C2500      C2501   1.400   1_554  A
C2500      S2505   1.808       .  S
C2501      C2502   1.412       .  A
C2501      H2506   1.082       .  S
C2502      C2503   1.420       .  A
C2503      C2504   1.404   1_556  A
C2503      S2507   1.801       .  S
C2504      H2508   1.084       .  S
S2505      H2510   1.407       .  S
S2507      H2511   1.407       .  S
C2513      C2514   1.402       .  A
C2513      C2518   1.402       .  A
C2513      H2523   1.084       .  S
C2514      C2519   1.482   1_655  S
C2514      C2515   1.412       .  A
C2515      C2516   1.400       .  A
C2515      S2520   1.806       .  S
C2516      C2517   1.407       .  A
C2516      H2521   1.084       .  S
C2517      C2518   1.417       .  A
C2518      S2522   1.803       .  S
C2519      C2524   1.408       .  A
C2519      C2528   1.402       .  A
S2520      H2536   1.403   1_655  S
S2522      H2533   1.407   1_556  S
C2524      C2525   1.402       .  A
C2524      S2529   1.807   1_556  S
C2525      C2526   1.407       .  A
C2525      H2530   1.083       .  S
C2526      C2527   1.417       .  A
C2527      C2528   1.403       .  A
C2527      S2531   1.798       .  S
C2528      H2532   1.084       .  S
S2529      H2534   1.407       .  S
S2531      H2535   1.408       .  S
C2537      C2538   1.403       .  A
C2537      C2542   1.399       .  A
C2537      H2547   1.084       .  S
C2538      C2543   1.479       .  S
C2538      C2539   1.413       .  A
C2539      C2540   1.401       .  A
C2539      S2544   1.805       .  S
C2540      C2541   1.404       .  A
C2540      H2545   1.084       .  S
C2541      C2542   1.411       .  A
C2542      S2546   1.804       .  S
C2543      C2548   1.406       .  A
C2543      C2552   1.404       .  A
S2544      H2560   1.403       .  S
S2546      H2557   1.407       .  S
C2548      C2549   1.396       .  A
C2548      S2553   1.809       .  S
C2549      C2550   1.405       .  A
C2549      H2554   1.083       .  S
C2550      C2551   1.415       .  A
C2551      C2552   1.410       .  A
C2551      S2555   1.807       .  S
C2552      H2556   1.082       .  S
S2553      H2558   1.407       .  S
S2555      H2559   1.407       .  S
C2561      C2562   1.400       .  A
C2561      C2566   1.397       .  A
C2561      H2571   1.084       .  S
C2562      C2567   1.475       .  S
C2562      C2563   1.411       .  A
C2563      C2564   1.400       .  A
C2563      S2568   1.805       .  S
C2564      C2565   1.405       .  A
C2564      H2569   1.084       .  S
C2565      C2566   1.415       .  A
C2566      S2570   1.803       .  S
C2567      C2572   1.409       .  A
C2567      C2576   1.397       .  A
S2568      H2584   1.405       .  S
S2570      H2581   1.407       .  S
C2572      C2573   1.405       .  A
C2572      S2577   1.805       .  S
C2573      C2574   1.405       .  A
C2573      H2578   1.083       .  S
C2574      C2575   1.416       .  A
C2575      C2576   1.394       .  A
C2575      S2579   1.804       .  S
C2576      H2580   1.084       .  S
S2577      H2582   1.407       .  S
S2579      H2583   1.407       .  S
C2585      C2586   1.401       .  A
C2585      C2590   1.403       .  A
C2585      H2595   1.084       .  S
C2586      C2591   1.482   1_655  S
C2586      C2587   1.410       .  A
C2587      C2588   1.398       .  A
C2587      S2592   1.803       .  S
C2588      C2589   1.407       .  A
C2588      H2593   1.084       .  S
C2589      C2590   1.421       .  A
C2590      S2594   1.803       .  S
C2591      C2596   1.408       .  A
C2591      C2600   1.402       .  A
S2592      H2608   1.406   1_655  S
S2594      H2605   1.408       .  S
C2596      C2597   1.401       .  A
C2596      S2601   1.807       .  S
C2597      C2598   1.407       .  A
C2597      H2602   1.083       .  S
C2598      C2599   1.418       .  A
C2599      C2600   1.403       .  A
C2599      S2603   1.798       .  S
C2600      H2604   1.084       .  S
S2601      H2606   1.407       .  S
S2603      H2607   1.407       .  S
C2609      C2610   1.402       .  A
C2609      C2614   1.402       .  A
C2609      H2619   1.084       .  S
C2610      C2615   1.498       .  S
C2610      C2611   1.418       .  A
C2611      C2612   1.412       .  A
C2611      S2616   1.803       .  S
C2612      C2613   1.406       .  A
C2612      H2617   1.084       .  S
C2613      C2614   1.417       .  A
C2614      S2618   1.804       .  S
C2615      C2620   1.411       .  A
C2615      C2624   1.402       .  A
S2616      H2632   1.405       .  S
S2618      H2629   1.407       .  S
C2620      C2621   1.412       .  A
C2620      S2625   1.805       .  S
C2621      C2622   1.411       .  A
C2621      H2626   1.082       .  S
C2622      C2623   1.423       .  A
C2623      C2624   1.406       .  A
C2623      S2627   1.802       .  S
C2624      H2628   1.084       .  S
S2625      H2630   1.407       .  S
S2627      H2631   1.408       .  S
C2633      C2634   1.401       .  A
C2633      C2638   1.402       .  A
C2633      H2643   1.084       .  S
C2634      C2639   1.478       .  S
C2634      C2635   1.407       .  A
C2635      C2636   1.395       .  A
C2635      S2640   1.805       .  S
C2636      C2637   1.411       .  A
C2636      H2641   1.083       .  S
C2637      C2638   1.422       .  A
C2638      S2642   1.801       .  S
C2639      C2644   1.410       .  A
C2639      C2648   1.400       .  A
S2640      H2656   1.406       .  S
S2642      H2653   1.408       .  S
C2644      C2645   1.404       .  A
C2644      S2649   1.807       .  S
C2645      C2646   1.405       .  A
C2645      H2650   1.083       .  S
C2646      C2647   1.414       .  A
C2647      C2648   1.398       .  A
C2647      S2651   1.803       .  S
C2648      H2652   1.084       .  S
S2649      H2654   1.407       .  S
S2651      H2655   1.407       .  S
C2657      C2658   1.400       .  A
C2657      C2662   1.398       .  A
C2657      H2667   1.084       .  S
C2658      C2663   1.484       .  S
C2658      C2659   1.413       .  A
C2659      C2660   1.405       .  A
C2659      S2664   1.803       .  S
C2660      C2661   1.407       .  A
C2660      H2665   1.084       .  S
C2661      C2662   1.418       .  A
C2662      S2666   1.803       .  S
C2663      C2668   1.409       .  A
C2663      C2672   1.400       .  A
S2664      H2680   1.405       .  S
S2666      H2677   1.407       .  S
C2668      C2669   1.405       .  A
C2668      S2673   1.806       .  S
C2669      C2670   1.405       .  A
C2669      H2674   1.083       .  S
C2670      C2671   1.422       .  A
C2671      C2672   1.402       .  A
C2671      S2675   1.805       .  S
C2672      H2676   1.084       .  S
S2673      H2678   1.406       .  S
S2675      H2679   1.407       .  S
C2681      C2682   1.405       .  A
C2681      C2686   1.406       .  A
C2681      H2691   1.084       .  S
C2682      C2687   1.485       .  S
C2682      C2683   1.412       .  A
C2683      C2684   1.397       .  A
C2683      S2688   1.807       .  S
C2684      C2685   1.407       .  A
C2684      H2689   1.084       .  S
C2685      C2686   1.415       .  A
C2686      S2690   1.798       .  S
C2687      C2692   1.409       .  A
C2687      C2696   1.404       .  A
S2688      H2704   1.405       .  S
S2690      H2701   1.405       .  S
C2692      C2693   1.401       .  A
C2692      S2697   1.809       .  S
C2693      C2694   1.408       .  A
C2693      H2698   1.082       .  S
C2694      C2695   1.416       .  A
C2695      C2696   1.405       .  A
C2695      S2699   1.798       .  S
C2696      H2700   1.084       .  S
S2697      H2702   1.407       .  S
S2699      H2703   1.406       .  S
C2705      C2706   1.407       .  A
C2705      C2710   1.407       .  A
C2705      H2715   1.084       .  S
C2706      C2711   1.506       .  S
C2706      C2707   1.419       .  A
C2707      C2708   1.408       .  A
C2707      S2712   1.802       .  S
C2708      C2709   1.405       .  A
C2708      H2713   1.084       .  S
C2709      C2710   1.417       .  A
C2710      S2714   1.803       .  S
C2711      C2716   1.418       .  A
C2711      C2720   1.405       .  A
S2712      H2728   1.406       .  S
S2714      H2725   1.407       .  S
C2716      C2717   1.416       .  A
C2716      S2721   1.806       .  S
C2717      C2718   1.405       .  A
C2717      H2722   1.083       .  S
C2718      C2719   1.414       .  A
C2719      C2720   1.404       .  A
C2719      S2723   1.804       .  S
C2720      H2724   1.084       .  S
S2721      H2726   1.407       .  S
S2723      H2727   1.407       .  S
C2729      C2730   1.403       .  A
C2729      C2734   1.404       .  A
C2729      H2739   1.084       .  S
C2730      C2735   1.480   1_655  S
C2730      C2731   1.411       .  A
C2731      C2732   1.396       .  A
C2731      S2736   1.805       .  S
C2732      C2733   1.403       .  A
C2732      H2737   1.084       .  S
C2733      C2734   1.417       .  A
C2734      S2738   1.804       .  S
C2735      C2740   1.407       .  A
C2735      C2744   1.402       .  A
S2736      H2752   1.404   1_655  S
S2738      H2749   1.407       .  S
C2740      C2741   1.400       .  A
C2740      S2745   1.807       .  S
C2741      C2742   1.406       .  A
C2741      H2746   1.083       .  S
C2742      C2743   1.418       .  A
C2743      C2744   1.403       .  A
C2743      S2747   1.799       .  S
C2744      H2748   1.084       .  S
S2745      H2750   1.407       .  S
S2747      H2751   1.407       .  S
C2753      C2754   1.405       .  A
C2753      C2758   1.415       .  A
C2753      H2763   1.083       .  S
C2754      C2759   1.501   1_565  S
C2754      C2755   1.413       .  A
C2755      C2756   1.408       .  A
C2755      S2760   1.805   1_565  S
C2756      C2757   1.414       .  A
C2756      H2761   1.083       .  S
C2757      C2758   1.421       .  A
C2758      S2762   1.806       .  S
C2759      C2764   1.413       .  A
C2759      C2768   1.402       .  A
S2760      H2776   1.404       .  S
S2762      H2773   1.406       .  S
C2764      C2765   1.415       .  A
C2764      S2769   1.804       .  S
C2765      C2766   1.410       .  A
C2765      H2770   1.082       .  S
C2766      C2767   1.420       .  A
C2767      C2768   1.405       .  A
C2767      S2771   1.803       .  S
C2768      H2772   1.084       .  S
S2769      H2774   1.407       .  S
S2771      H2775   1.408       .  S
C2777      C2778   1.400       .  A
C2777      C2782   1.394       .  A
C2777      H2787   1.084       .  S
C2778      C2783   1.483       .  S
C2778      C2779   1.415       .  A
C2779      C2780   1.406       .  A
C2779      S2784   1.804       .  S
C2780      C2781   1.405       .  A
C2780      H2785   1.084       .  S
C2781      C2782   1.412       .  A
C2782      S2786   1.804       .  S
C2783      C2788   1.409       .  A
C2783      C2792   1.403       .  A
S2784      H2800   1.406       .  S
S2786      H2797   1.407       .  S
C2788      C2789   1.401       .  A
C2788      S2793   1.808       .  S
C2789      C2790   1.408       .  A
C2789      H2794   1.082       .  S
C2790      C2791   1.418       .  A
C2791      C2792   1.402       .  A
C2791      S2795   1.797       .  S
C2792      H2796   1.084       .  S
S2793      H2798   1.406       .  S
S2795      H2799   1.406       .  S
C2801      C2802   1.401   1_556  A
C2801      C2806   1.399       .  A
C2801      H2811   1.084       .  S
C2802      C2807   1.485   1_655  S
C2802      C2803   1.413       .  A
C2803      C2804   1.405       .  A
C2803      S2808   1.802       .  S
C2804      C2805   1.407       .  A
C2804      H2809   1.084       .  S
C2805      C2806   1.416   1_554  A
C2806      S2810   1.803       .  S
C2807      C2812   1.408       .  A
C2807      C2816   1.403       .  A
S2808      H2824   1.405   1_655  S
S2810      H2821   1.407       .  S
C2812      C2813   1.404       .  A
C2812      S2817   1.807       .  S
C2813      C2814   1.408       .  A
C2813      H2818   1.083       .  S
C2814      C2815   1.417       .  A
C2815      C2816   1.404       .  A
C2815      S2819   1.803   1_554  S
C2816      H2820   1.084   1_554  S
S2817      H2822   1.407       .  S
S2819      H2823   1.407       .  S
C2825      C2826   1.399       .  A
C2825      C2830   1.397       .  A
C2825      H2835   1.084       .  S
C2826      C2831   1.478       .  S
C2826      C2827   1.414       .  A
C2827      C2828   1.403       .  A
C2827      S2832   1.804       .  S
C2828      C2829   1.404       .  A
C2828      H2833   1.084       .  S
C2829      C2830   1.416       .  A
C2830      S2834   1.804       .  S
C2831      C2836   1.405       .  A
C2831      C2840   1.404       .  A
S2832      H2848   1.405       .  S
S2834      H2845   1.407       .  S
C2836      C2837   1.399       .  A
C2836      S2841   1.806       .  S
C2837      C2838   1.407       .  A
C2837      H2842   1.083       .  S
C2838      C2839   1.415       .  A
C2839      C2840   1.403       .  A
C2839      S2843   1.802       .  S
C2840      H2844   1.084       .  S
S2841      H2846   1.407       .  S
S2843      H2847   1.407       .  S
C2849      C2850   1.400       .  A
C2849      C2854   1.396       .  A
C2849      H2859   1.084       .  S
C2850      C2855   1.475       .  S
C2850      C2851   1.413       .  A
C2851      C2852   1.400       .  A
C2851      S2856   1.803       .  S
C2852      C2853   1.401       .  A
C2852      H2857   1.083       .  S
C2853      C2854   1.415       .  A
C2854      S2858   1.806       .  S
C2855      C2860   1.410       .  A
C2855      C2864   1.398       .  A
S2856      H2872   1.404       .  S
S2858      H2869   1.407       .  S
C2860      C2861   1.406       .  A
C2860      S2865   1.806       .  S
C2861      C2862   1.405       .  A
C2861      H2866   1.083       .  S
C2862      C2863   1.414       .  A
C2863      C2864   1.395       .  A
C2863      S2867   1.802       .  S
C2864      H2868   1.084       .  S
S2865      H2870   1.407       .  S
S2867      H2871   1.406       .  S
C2873      C2874   1.406       .  A
C2873      C2878   1.409       .  A
C2873      H2883   1.084       .  S
C2874      C2879   1.492   1_565  S
C2874      C2875   1.410   1_556  A
C2875      C2876   1.400       .  A
C2875      S2880   1.804   1_565  S
C2876      C2877   1.409       .  A
C2876      H2881   1.084       .  S
C2877      C2878   1.419   1_554  A
C2878      S2882   1.799       .  S
C2879      C2884   1.411       .  A
C2879      C2888   1.403       .  A
S2880      H2896   1.406       .  S
S2882      H2893   1.408       .  S
C2884      C2885   1.410       .  A
C2884      S2889   1.805       .  S
C2885      C2886   1.407       .  A
C2885      H2890   1.083       .  S
C2886      C2887   1.417       .  A
C2887      C2888   1.402       .  A
C2887      S2891   1.804       .  S
C2888      H2892   1.084       .  S
S2889      H2894   1.407       .  S
S2891      H2895   1.407       .  S
C2897      C2898   1.400       .  A
C2897      C2902   1.396       .  A
C2897      H2907   1.084       .  S
C2898      C2903   1.481       .  S
C2898      C2899   1.413       .  A
C2899      C2900   1.405       .  A
C2899      S2904   1.803       .  S
C2900      C2901   1.405       .  A
C2900      H2905   1.082       .  S
C2901      C2902   1.416       .  A
C2902      S2906   1.804       .  S
C2903      C2908   1.409       .  A
C2903      C2912   1.400       .  A
S2904      H2920   1.404       .  S
S2906      H2917   1.407       .  S
C2908      C2909   1.406       .  A
C2908      S2913   1.805       .  S
C2909      C2910   1.405       .  A
C2909      H2914   1.083       .  S
C2910      C2911   1.415       .  A
C2911      C2912   1.403       .  A
C2911      S2915   1.808       .  S
C2912      H2916   1.083       .  S
S2913      H2918   1.407       .  S
S2915      H2919   1.407       .  S
C2921      C2922   1.404       .  A
C2921      C2926   1.398       .  A
C2921      H2931   1.084       .  S
C2922      C2927   1.484       .  S
C2922      C2923   1.414       .  A
C2923      C2924   1.399       .  A
C2923      S2928   1.804       .  S
C2924      C2925   1.404       .  A
C2924      H2929   1.084       .  S
C2925      C2926   1.412       .  A
C2926      S2930   1.801       .  S
C2927      C2932   1.412       .  A
C2927      C2936   1.402       .  A
S2928      H2944   1.406       .  S
S2930      H2941   1.407       .  S
C2932      C2933   1.405       .  A
C2932      S2937   1.807       .  S
C2933      C2934   1.404       .  A
C2933      H2938   1.083       .  S
C2934      C2935   1.413       .  A
C2935      C2936   1.395       .  A
C2935      S2939   1.804       .  S
C2936      H2940   1.084       .  S
S2937      H2942   1.407       .  S
S2939      H2943   1.407       .  S
C2945      C2946   1.404       .  A
C2945      C2950   1.406       .  A
C2945      H2955   1.084       .  S
C2946      C2951   1.492   1_565  S
C2946      C2947   1.413       .  A
C2947      C2948   1.403       .  A
C2947      S2952   1.804   1_565  S
C2948      C2949   1.409       .  A
C2948      H2953   1.083       .  S
C2949      C2950   1.421       .  A
C2950      S2954   1.803       .  S
C2951      C2956   1.412       .  A
C2951      C2960   1.401       .  A
S2952      H2968   1.405       .  S
S2954      H2965   1.408       .  S
C2956      C2957   1.411       .  A
C2956      S2961   1.806       .  S
C2957      C2958   1.409       .  A
C2957      H2962   1.083       .  S
C2958      C2959   1.421       .  A
C2959      C2960   1.403       .  A
C2959      S2963   1.803       .  S
C2960      H2964   1.084       .  S
S2961      H2966   1.406       .  S
S2963      H2967   1.408       .  S
C2969      C2970   1.403       .  A
C2969      C2974   1.402       .  A
C2969      H2979   1.083       .  S
C2970      C2975   1.485       .  S
C2970      C2971   1.414       .  A
C2971      C2972   1.403       .  A
C2971      S2976   1.804       .  S
C2972      C2973   1.404       .  A
C2972      H2977   1.084       .  S
C2973      C2974   1.412       .  A
C2974      S2978   1.808       .  S
C2975      C2980   1.412       .  A
C2975      C2984   1.401       .  A
S2976      H2992   1.406       .  S
S2978      H2989   1.406       .  S
C2980      C2981   1.407       .  A
C2980      S2985   1.806       .  S
C2981      C2982   1.404       .  A
C2981      H2986   1.083       .  S
C2982      C2983   1.415       .  A
C2983      C2984   1.399       .  A
C2983      S2987   1.804       .  S
C2984      H2988   1.084       .  S
S2985      H2990   1.406       .  S
S2987      H2991   1.407       .  S
C2993      C2994   1.402       .  A
C2993      C2998   1.400       .  A
C2993      H3003   1.084       .  S
C2994      C2999   1.490       .  S
C2994      C2995   1.415       .  A
C2995      C2996   1.409       .  A
C2995      S3000   1.802       .  S
C2996      C2997   1.405       .  A
C2996      H3001   1.084       .  S
C2997      C2998   1.414       .  A
C2998      S3002   1.805       .  S
C2999      C3004   1.411       .  A
C2999      C3008   1.403       .  A
S3000      H3016   1.406       .  S
S3002      H3013   1.407       .  S
C3004      C3005   1.408       .  A
C3004      S3009   1.805       .  S
C3005      C3006   1.405       .  A
C3005      H3010   1.083       .  S
C3006      C3007   1.416       .  A
C3007      C3008   1.403       .  A
C3007      S3011   1.804       .  S
C3008      H3012   1.084       .  S
S3009      H3014   1.407       .  S
S3011      H3015   1.407       .  S
C3017      C3018   1.405       .  A
C3017      C3022   1.407       .  A
C3017      H3027   1.084       .  S
C3018      C3023   1.495       .  S
C3018      C3019   1.412       .  A
C3019      C3020   1.398       .  A
C3019      S3024   1.805       .  S
C3020      C3021   1.411       .  A
C3020      H3025   1.083       .  S
C3021      C3022   1.423       .  A
C3022      S3026   1.801       .  S
C3023      C3028   1.415       .  A
C3023      C3032   1.405       .  A
S3024      H3040   1.406       .  S
S3026      H3037   1.407       .  S
C3028      C3029   1.409       .  A
C3028      S3033   1.806       .  S
C3029      C3030   1.404       .  A
C3029      H3034   1.083       .  S
C3030      C3031   1.413       .  A
C3031      C3032   1.400       .  A
C3031      S3035   1.803       .  S
C3032      H3036   1.084       .  S
S3033      H3038   1.407       .  S
S3035      H3039   1.407       .  S
C3041      C3042   1.404       .  A
C3041      C3046   1.401       .  A
C3041      H3051   1.084       .  S
C3042      C3047   1.476       .  S
C3042      C3043   1.408       .  A
C3043      C3044   1.395       .  A
C3043      S3048   1.804       .  S
C3044      C3045   1.407   1_556  A
C3044      H3049   1.084   1_556  S
C3045      C3046   1.414   1_554  A
C3046      S3050   1.803   1_556  S
C3047      C3052   1.406       .  A
C3047      C3056   1.401       .  A
S3048      H3064   1.406       .  S
S3050      H3061   1.407       .  S
C3052      C3053   1.402       .  A
C3052      S3057   1.807       .  S
C3053      C3054   1.409       .  A
C3053      H3058   1.083       .  S
C3054      C3055   1.415       .  A
C3055      C3056   1.397       .  A
C3055      S3059   1.802       .  S
C3056      H3060   1.084       .  S
S3057      H3062   1.407       .  S
S3059      H3063   1.408       .  S
C3065      C3066   1.401       .  A
C3065      C3070   1.398       .  A
C3065      H3075   1.084       .  S
C3066      C3071   1.481       .  S
C3066      C3067   1.414       .  A
C3067      C3068   1.401       .  A
C3067      S3072   1.805       .  S
C3068      C3069   1.404       .  A
C3068      H3073   1.084       .  S
C3069      C3070   1.416       .  A
C3070      S3074   1.805       .  S
C3071      C3076   1.407       .  A
C3071      C3080   1.401       .  A
S3072      H3088   1.406       .  S
S3074      H3085   1.407       .  S
C3076      C3077   1.402       .  A
C3076      S3081   1.808       .  S
C3077      C3078   1.410       .  A
C3077      H3082   1.082       .  S
C3078      C3079   1.418       .  A
C3079      C3080   1.400       .  A
C3079      S3083   1.799       .  S
C3080      H3084   1.084       .  S
S3081      H3086   1.406       .  S
S3083      H3087   1.408       .  S
C3089      C3090   1.404       .  A
C3089      C3094   1.405       .  A
C3089      H3099   1.084       .  S
C3090      C3095   1.483   1_545  S
C3090      C3091   1.410       .  A
C3091      C3092   1.398       .  A
C3091      S3096   1.804   1_545  S
C3092      C3093   1.406       .  A
C3092      H3097   1.084       .  S
C3093      C3094   1.416       .  A
C3094      S3098   1.800       .  S
C3095      C3100   1.409       .  A
C3095      C3104   1.401       .  A
S3096      H3112   1.403       .  S
S3098      H3109   1.406       .  S
C3100      C3101   1.406       .  A
C3100      S3105   1.804       .  S
C3101      C3102   1.407       .  A
C3101      H3106   1.083       .  S
C3102      C3103   1.417       .  A
C3103      C3104   1.400       .  A
C3103      S3107   1.803       .  S
C3104      H3108   1.084       .  S
S3105      H3110   1.407       .  S
S3107      H3111   1.407       .  S
C3113      C3114   1.402       .  A
C3113      C3118   1.405       .  A
C3113      H3123   1.084       .  S
C3114      C3119   1.483       .  S
C3114      C3115   1.411       .  A
C3115      C3116   1.396       .  A
C3115      S3120   1.805       .  S
C3116      C3117   1.407       .  A
C3116      H3121   1.084       .  S
C3117      C3118   1.418       .  A
C3118      S3122   1.798       .  S
C3119      C3124   1.407       .  A
C3119      C3128   1.403       .  A
S3120      H3136   1.405       .  S
S3122      H3133   1.405       .  S
C3124      C3125   1.400       .  A
C3124      S3129   1.808       .  S
C3125      C3126   1.408       .  A
C3125      H3130   1.083       .  S
C3126      C3127   1.418       .  A
C3127      C3128   1.406       .  A
C3127      S3131   1.801       .  S
C3128      H3132   1.084       .  S
S3129      H3134   1.406       .  S
S3131      H3135   1.406       .  S
