geometry optimzed in LAMMPS
_audit_creation_date              2020-12-01 
_audit_creation_method            'lammps2cif' 
_symmetry_space_group_name_H-M    'P1' 
_symmetry_Int_Tables_number       1 
_symmetry_cell_setting            triclinic 
loop_ 
_symmetry_equiv_pos_as_xyz 
  x,y,z 
_cell_length_a                    33.01061374 
_cell_length_b                    33.02276114858768 
_cell_length_c                    29.78768962437243 
_cell_angle_alpha                 89.98531246433825 
_cell_angle_beta                  90.00350343068375 
_cell_angle_gamma                 90.00442733380129 
loop_ 
_atom_site_label 
_atom_site_type_symbol 
_atom_site_fract_x 
_atom_site_fract_y 
_atom_site_fract_z 
_atom_site_charge 
O1          O  0.54149267  0.78426311  0.04743136    -0.73900
O2          O  0.45842419  0.78325512  0.45692520    -0.73900
O3          O  0.54140487  0.78355636  0.45688946    -0.74000
O4          O  0.45846296  0.78390561  0.04757402    -0.74000
O5          O  0.45880745  0.85144912  0.04720309    -0.74000
O6          O  0.54053473  0.85109265  0.45618518    -0.74000
O7          O  0.45877641  0.85080599  0.45636544    -0.73900
O8          O  0.54071194  0.85180968  0.04701318    -0.74000
Ni9        Ni  0.49994398  0.78128949  0.00224675     1.25400
Ni10       Ni  0.49968356  0.85363469  0.50168005     1.25400
C11         C  0.55505456  0.81829298  0.06171292     0.88300
C12         C  0.44485119  0.81703304  0.44193293     0.88200
C13         C  0.55479195  0.81740057  0.44186728     0.88200
C14         C  0.44482500  0.81782944  0.06207030     0.88400
C15         C  0.65090490  0.79140112  0.37764979     0.03600
C16         C  0.61803716  0.78844130  0.40762324    -0.12500
C17         C  0.58744787  0.81812350  0.40793156     0.01100
C18         C  0.58905830  0.84995513  0.37676937    -0.11000
C19         C  0.62111211  0.85287848  0.34609772     0.03600
C20         C  0.65216287  0.82390977  0.34712203    -0.10400
H21         H  0.61694804  0.76384063  0.43167639     0.09200
H22         H  0.56532388  0.87264498  0.37649166     0.06800
H23         H  0.67648497  0.82605503  0.32288266     0.06600
C24         C  0.34893212  0.79127775  0.37744934     0.03600
C25         C  0.34805799  0.82360209  0.34670681    -0.12500
C26         C  0.37926136  0.85231646  0.34566939     0.01100
C27         C  0.41128881  0.84922735  0.37631507    -0.11000
C28         C  0.41243636  0.81766402  0.40781463     0.03600
C29         C  0.38154628  0.78833699  0.40775623    -0.10400
H30         H  0.32389027  0.82596916  0.32235406     0.09200
H31         H  0.43524503  0.87168618  0.37592074     0.06800
H32         H  0.38233034  0.76396401  0.43210644     0.06600
C33         C  0.65158704  0.79241835  0.12522646     0.03600
C34         C  0.61895514  0.79000267  0.09485158    -0.12500
C35         C  0.58802246  0.81930666  0.09521691     0.01100
C36         C  0.58935125  0.85069358  0.12688579    -0.11000
C37         C  0.62131956  0.85332386  0.15770416     0.03600
C38         C  0.65247000  0.82446517  0.15639561    -0.10400
H39         H  0.61798847  0.76581868  0.07029541     0.09200
H40         H  0.56542763  0.87317922  0.12751015     0.06800
H41         H  0.67665197  0.82662103  0.18073276     0.06600
C42         C  0.34959990  0.79106223  0.12764001     0.03600
C43         C  0.34825253  0.82379182  0.15787120    -0.12500
C44         C  0.37896839  0.85313104  0.15824908     0.01100
C45         C  0.41073340  0.85048557  0.12721130    -0.11000
C46         C  0.41228272  0.81863959  0.09612602     0.03600
C47         C  0.38195571  0.78871457  0.09688858    -0.10400
H48         H  0.32383669  0.82636724  0.18187305     0.09200
H49         H  0.43428052  0.87337562  0.12716107     0.06800
H50         H  0.38317409  0.76407096  0.07292023     0.06600
O51         O  0.58855198  0.98126382  0.29747566    -0.73900
O52         O  0.58802061  0.89964861  0.20654121    -0.73900
O53         O  0.58792611  0.89956800  0.29754864    -0.74000
O54         O  0.58878365  0.98131424  0.20666080    -0.74000
O55         O  0.65636837  0.98148468  0.20684305    -0.74000
O56         O  0.65550098  0.89894459  0.29749044    -0.74000
O57         O  0.65559327  0.89891917  0.20692623    -0.73900
O58         O  0.65614040  0.98159399  0.29740911    -0.74000
Ni59       Ni  0.58595230  0.94048013  0.25206016     1.25400
Ni60       Ni  0.65834585  0.94020629  0.25218690     1.25400
C61         C  0.62227498  0.99510519  0.31217604     0.88300
C62         C  0.62169869  0.88562441  0.19193620     0.88200
C63         C  0.62157608  0.88550622  0.31222515     0.88200
C64         C  0.62257456  0.99502976  0.19194703     0.88400
O65         O  0.34457135  0.89907669  0.20678637    -0.73900
O66         O  0.34358815  0.98082106  0.29795872    -0.73900
O67         O  0.34360505  0.98166187  0.20755527    -0.74000
O68         O  0.34475193  0.89832940  0.29723384    -0.74000
O69         O  0.41233077  0.89933592  0.29755731    -0.74000
O70         O  0.41120220  0.98148420  0.20733779    -0.74000
O71         O  0.41119046  0.98098636  0.29808045    -0.73900
O72         O  0.41215738  0.89982266  0.20667537    -0.74000
Ni73       Ni  0.34168819  0.93993421  0.25238520     1.25400
Ni74       Ni  0.41410253  0.94045814  0.25240799     1.25400
C75         C  0.37850811  0.88576408  0.19200466     0.88300
C76         C  0.37732404  0.99448020  0.31280992     0.88200
C77         C  0.37740811  0.99529549  0.19278737     0.88200
C78         C  0.37872835  0.88502063  0.31198654     0.88400
O79         O  0.45874188  0.02602981  0.45714291    -0.73900
O80         O  0.54060190  0.02626862  0.04759304    -0.73900
O81         O  0.45893239  0.02593428  0.04776437    -0.74000
O82         O  0.54059730  0.02645291  0.45685940    -0.74000
O83         O  0.54063296  0.09402696  0.45702208    -0.74000
O84         O  0.45846186  0.09352368  0.04750438    -0.74000
O85         O  0.54085447  0.09385735  0.04727353    -0.73900
O86         O  0.45795921  0.09361194  0.45745742    -0.74000
Ni87       Ni  0.49973313  0.02377188  0.50231324     1.25400
Ni88       Ni  0.49947429  0.09618874  0.00229639     1.25400
C89         C  0.44437786  0.05970685  0.44299069     0.88300
C90         C  0.55453256  0.06004666  0.06193481     0.88200
C91         C  0.44495871  0.05967386  0.06219755     0.88200
C92         C  0.55445709  0.06026738  0.44240942     0.88400
C93         C  0.34887293  0.08785492  0.37980786     0.03600
C94         C  0.38130245  0.08921783  0.41040684    -0.12500
C95         C  0.41131565  0.05916677  0.40995208     0.01100
C96         C  0.40925032  0.02792149  0.37835957    -0.11000
C97         C  0.37754930  0.02641913  0.34721782     0.03600
C98         C  0.34720385  0.05621434  0.34827966    -0.10400
H99         H  0.38337230  0.11349956  0.43469184     0.09200
H100        H  0.43258617  0.00481858  0.37781006     0.06800
H101        H  0.32272250  0.05513903  0.32406510     0.06600
C102        C  0.64932354  0.08945807  0.37837234     0.03600
C103        C  0.65149285  0.05753986  0.34721244    -0.12500
C104        C  0.62161031  0.02728380  0.34642751     0.01100
C105        C  0.58988192  0.02857776  0.37764194    -0.11000
C106        C  0.58729312  0.06009925  0.40892681     0.03600
C107        C  0.61676212  0.09072135  0.40883431    -0.10400
H108        H  0.67606786  0.05653450  0.32311677     0.09200
H109        H  0.56696311  0.00505831  0.37742188     0.06800
H110        H  0.61435372  0.11520489  0.43282564     0.06600
C111        C  0.65043246  0.08830030  0.12396933     0.03600
C112        C  0.65256683  0.05665016  0.15554194    -0.12500
C113        C  0.62206219  0.02698912  0.15740072     0.01100
C114        C  0.58989655  0.02855734  0.12677173    -0.11000
C115        C  0.58747475  0.05975773  0.09511751     0.03600
C116        C  0.61740240  0.08980979  0.09421561    -0.10400
H117        H  0.67752652  0.05545703  0.17913411     0.09200
H118        H  0.56655066  0.00547106  0.12765311     0.06800
H119        H  0.61494233  0.11402760  0.06990451     0.06600
C120        C  0.35087400  0.08979170  0.12635508     0.03600
C121        C  0.34822280  0.05778217  0.15745052    -0.12500
C122        C  0.37799950  0.02735807  0.15844419     0.01100
C123        C  0.40969944  0.02828417  0.12720945    -0.11000
C124        C  0.41232840  0.05954865  0.09571367     0.03600
C125        C  0.38320902  0.09036029  0.09567451    -0.10400
H126        H  0.32374218  0.05712749  0.18167387     0.09200
H127        H  0.43251430  0.00466459  0.12751877     0.06800
H128        H  0.38534873  0.11398957  0.07065694     0.06600
O129        O  0.95909879  0.52714404  0.20291761    -0.73900
O130        O  0.04111427  0.52813333  0.29346783    -0.73900
O131        O  0.95934191  0.52781057  0.29374622    -0.74000
O132        O  0.04100438  0.52756424  0.20262592    -0.74000
O133        O  0.04124351  0.59510782  0.20223561    -0.74000
O134        O  0.95851465  0.59534699  0.29314623    -0.74000
O135        O  0.04149851  0.59568269  0.29288403    -0.73900
O136        O  0.95821396  0.59468899  0.20260497    -0.74000
Ni137      Ni  0.00016497  0.52531793  0.24819751     1.25400
Ni138      Ni  0.99987117  0.59766032  0.24767818     1.25400
C139        C  0.94468335  0.56065554  0.18829430     0.88300
C140        C  0.05508265  0.56190126  0.30786212     0.88200
C141        C  0.94512823  0.56149577  0.30814621     0.88200
C142        C  0.05492013  0.56120458  0.18773211     0.88400
O143        O  0.04200591  0.28546200  0.29253478    -0.73900
O144        O  0.95911446  0.28514484  0.20277751    -0.73900
O145        O  0.04147831  0.28558692  0.20251248    -0.74000
O146        O  0.95935423  0.28495261  0.29304291    -0.74000
O147        O  0.95933539  0.35252741  0.29323822    -0.74000
O148        O  0.04092090  0.35317694  0.20223939    -0.74000
O149        O  0.95925614  0.35273319  0.20248838    -0.73900
O150        O  0.04118292  0.35304502  0.29285560    -0.74000
Ni151      Ni  0.00049386  0.28285425  0.24773446     1.25400
Ni152      Ni  0.00014751  0.35527321  0.24773585     1.25400
C153        C  0.05557711  0.31937281  0.30698480     0.88300
C154        C  0.94539451  0.31893636  0.18811571     0.88200
C155        C  0.05493113  0.31945274  0.18780891     0.88200
C156        C  0.94551965  0.31869528  0.30768830     0.88400
O157        O  0.15521359  0.48069224  0.45265843    -0.73900
O158        O  0.15631965  0.39740336  0.04241527    -0.73900
O159        O  0.15640690  0.39819257  0.45200387    -0.74000
O160        O  0.15532368  0.47999913  0.04312398    -0.74000
O161        O  0.08773813  0.47919942  0.04319861    -0.74000
O162        O  0.08880442  0.39804198  0.45180885    -0.74000
O163        O  0.08872335  0.39753810  0.04255126    -0.73900
O164        O  0.08763591  0.47968732  0.45230412    -0.74000
Ni165      Ni  0.15825760  0.43911373  0.49755083     1.25400
Ni166      Ni  0.08584437  0.43856916  0.49746541     1.25400
C167        C  0.12124308  0.49398890  0.43786987     0.88300
C168        C  0.12251086  0.38375380  0.05715404     0.88200
C169        C  0.12268047  0.38453650  0.43712267     0.88200
C170        C  0.12136810  0.49329297  0.05787707     0.88400
C171        C  0.15108191  0.58763606  0.37224366     0.03600
C172        C  0.11846013  0.59056278  0.34194055    -0.12500
C173        C  0.08754601  0.56125824  0.34193574     0.01100
C174        C  0.08869307  0.52972133  0.37347419    -0.11000
C175        C  0.12072113  0.52665405  0.40412849     0.03600
C176        C  0.15193729  0.55535291  0.40304132    -0.10400
H177        H  0.11768222  0.61491228  0.31756129     0.09200
H178        H  0.06472519  0.50727585  0.37390654     0.06800
H179        H  0.17610341  0.55300718  0.42739881     0.06600
C180        C  0.15097800  0.29105034  0.37021266     0.03600
C181        C  0.15270722  0.32270186  0.40173196    -0.12500
C182        C  0.12245474  0.35259701  0.40271954     0.01100
C183        C  0.09079242  0.35117641  0.37152995    -0.11000
C184        C  0.08865537  0.31990448  0.33998550     0.03600
C185        C  0.11857486  0.28976519  0.33958642    -0.10400
H186        H  0.17715634  0.32371156  0.42598935     0.09200
H187        H  0.06752213  0.37434676  0.37203083     0.06800
H188        H  0.11644702  0.26546588  0.31532883     0.06600
C189        C  0.14912289  0.28941389  0.12385820     0.03600
C190        C  0.11676070  0.28885507  0.15449160    -0.12500
C191        C  0.08757371  0.31959644  0.15431595     0.01100
C192        C  0.09016461  0.35079431  0.12273325    -0.11000
C193        C  0.12190707  0.35172242  0.09154438     0.03600
C194        C  0.15174446  0.32135553  0.09266886    -0.10400
H195        H  0.11465208  0.26528871  0.17958588     0.09200
H196        H  0.06730008  0.37436442  0.12233512     0.06800
H197        H  0.17625888  0.32200659  0.06848777     0.06600
C198        C  0.15006711  0.58813536  0.12210197     0.03600
C199        C  0.11769971  0.59045042  0.15284216    -0.12500
C200        C  0.08744800  0.56044708  0.15365732     0.01100
C201        C  0.08907964  0.52856222  0.12262912    -0.11000
C202        C  0.12085042  0.52595369  0.09159627     0.03600
C203        C  0.15149231  0.55536849  0.09192290    -0.10400
H204        H  0.11642428  0.61512206  0.17677125     0.09200
H205        H  0.06559180  0.50561137  0.12271960     0.06800
H206        H  0.17591383  0.55281522  0.06792527     0.06600
O207        O  0.84378795  0.39734074  0.45259853    -0.73900
O208        O  0.84417813  0.47993398  0.04313991    -0.73900
O209        O  0.84440956  0.47998038  0.45257008    -0.74000
O210        O  0.84348320  0.39736881  0.04316569    -0.74000
O211        O  0.91106935  0.39764926  0.04345895    -0.74000
O212        O  0.91198596  0.47933274  0.45254965    -0.74000
O213        O  0.91175301  0.47929426  0.04355606    -0.73900
O214        O  0.91137857  0.39765513  0.45265312    -0.74000
Ni215      Ni  0.84151813  0.43868152  0.49784398     1.25400
Ni216      Ni  0.91391228  0.43845577  0.99805726     1.25400
C217        C  0.87767109  0.38382891  0.43789266     0.88300
C218        C  0.87804775  0.49326318  0.05815168     0.88200
C219        C  0.87835198  0.49340185  0.43785283     0.88200
C220        C  0.87728434  0.38387726  0.05810954     0.88400
C221        C  0.85064015  0.28950694  0.37168991     0.03600
C222        C  0.84845182  0.32143610  0.40282515    -0.12500
C223        C  0.87836189  0.35165872  0.40365104     0.01100
C224        C  0.91012513  0.35034083  0.37248791    -0.11000
C225        C  0.91270618  0.31883196  0.34119060     0.03600
C226        C  0.88322179  0.28822497  0.34125515    -0.10400
H227        H  0.82384914  0.32246491  0.42688550     0.09200
H228        H  0.93306145  0.37384333  0.37273951     0.06800
H229        H  0.88563265  0.26374225  0.31726337     0.06600
C230        C  0.84930759  0.58776317  0.37278093     0.03600
C231        C  0.88209084  0.59062953  0.34268542    -0.12500
C232        C  0.91252588  0.56078466  0.34215568     0.01100
C233        C  0.91084233  0.52887508  0.37322236    -0.11000
C234        C  0.87886520  0.52604717  0.40400943     0.03600
C235        C  0.84797252  0.55517740  0.40319786    -0.10400
H236        H  0.88323440  0.61529977  0.31872349     0.09200
H237        H  0.93446665  0.50606995  0.37335889     0.06800
H238        H  0.82372980  0.55310001  0.42754124     0.06600
C239        C  0.84808558  0.58644680  0.12483903     0.03600
C240        C  0.84719558  0.55437077  0.09370827    -0.12500
C241        C  0.87837383  0.52554438  0.09239466     0.01100
C242        C  0.91035229  0.52821144  0.12318861    -0.11000
C243        C  0.91168243  0.55961594  0.15483078     0.03600
C244        C  0.88073465  0.58890359  0.15519144    -0.10400
H245        H  0.82300142  0.55218102  0.06939023     0.09200
H246        H  0.93429414  0.50574517  0.12255450     0.06800
H247        H  0.88170924  0.61311163  0.17971743     0.06600
C248        C  0.84992021  0.29018131  0.12556741     0.03600
C249        C  0.84759759  0.32195805  0.09417163    -0.12500
C250        C  0.87784618  0.35188876  0.09260839     0.01100
C251        C  0.90990855  0.35048496  0.12338256    -0.11000
C252        C  0.91250847  0.31915811  0.15486343     0.03600
C253        C  0.88286443  0.28882554  0.15544238    -0.10400
H254        H  0.82271947  0.32302689  0.07046676     0.09200
H255        H  0.93306205  0.37376988  0.12270444     0.06800
H256        H  0.88547811  0.26449500  0.17959455     0.06600
C257        C  0.23446215  0.22651772  0.11157794     0.30300
C258        C  0.27298905  0.21546999  0.09608499    -0.35300
C259        C  0.28745813  0.17785460  0.11087057     0.16300
C260        C  0.26565061  0.15280377  0.13895221     0.22100
C261        C  0.22712825  0.16385964  0.15446458    -0.34200
C262        C  0.21265542  0.20147485  0.13967005     0.16200
O263        O  0.21508347  0.26035758  0.10210634    -0.26200
C264        C  0.18034569  0.25714409  0.12454051     0.06000
C265        C  0.17726165  0.22086252  0.14838124    -0.31100
O266        O  0.28499572  0.11892023  0.14832381    -0.22900
C267        C  0.31970974  0.12212144  0.12583494    -0.02900
C268        C  0.32281496  0.15843710  0.10206974    -0.17300
H269        H  0.29044309  0.23481605  0.07400826     0.20700
H270        H  0.20966060  0.14449923  0.17651305     0.19000
H271        H  0.15265841  0.20986547  0.16901845     0.19000
H272        H  0.34739334  0.16942127  0.08138842     0.14800
C273        C  0.77072164  0.22124525  0.10524174     0.30300
C274        C  0.73960034  0.20285352  0.08053338    -0.36100
C275        C  0.71991903  0.17034056  0.10154211     0.16300
C276        C  0.73014061  0.15674914  0.14384754     0.22100
C277        C  0.76127710  0.17512179  0.16853994    -0.34200
C278        C  0.78094642  0.20763843  0.14753951     0.16200
O279        O  0.79318187  0.25207599  0.09214009    -0.26200
C280        C  0.81836914  0.25826549  0.12638386     0.06000
C281        C  0.81188136  0.23147067  0.16189570    -0.31100
O282        O  0.70754123  0.12606463  0.15706455    -0.22900
C283        C  0.68225900  0.11994356  0.12289431    -0.02900
C284        C  0.68883859  0.14663033  0.08729701    -0.17300
H285        H  0.73126047  0.21320768  0.04730093     0.20700
H286        H  0.76956274  0.16482127  0.20181002     0.19000
H287        H  0.82730558  0.22973499  0.19388151     0.19000
H288        H  0.67331262  0.14843784  0.05537653     0.14800
C289        C  0.72853057  0.15788503  0.35602631     0.30300
C290        C  0.75930717  0.17598045  0.33049641    -0.36100
C291        C  0.78025707  0.20780892  0.35126241     0.16300
C292        C  0.77149158  0.22103631  0.39410029     0.22100
C293        C  0.74072124  0.20293372  0.41963652    -0.34200
C294        C  0.71976485  0.17110867  0.39886583     0.16200
O295        O  0.70519295  0.12759752  0.34331144    -0.26200
C296        C  0.68088803  0.12137517  0.37833430     0.06000
C297        C  0.68877520  0.14763281  0.41395461    -0.31100
O298        O  0.79480410  0.25135187  0.40679037    -0.22900
C299        C  0.81908909  0.25758322  0.37175106    -0.02900
C300        C  0.81121628  0.23130768  0.33614813    -0.17300
H301        H  0.76643988  0.16593074  0.29681202     0.20700
H302        H  0.73358007  0.21299298  0.45331479     0.19000
H303        H  0.67430634  0.14907412  0.44650537     0.19000
H304        H  0.82567244  0.22987244  0.30359038     0.14800
C305        C  0.27097560  0.15740405  0.35632519     0.30300
C306        C  0.24130677  0.17646367  0.33005929    -0.36100
C307        C  0.22068481  0.20867510  0.35049825     0.16300
C308        C  0.22873782  0.22136415  0.39370985     0.22100
C309        C  0.25840171  0.20230384  0.41997215    -0.34200
C310        C  0.27901911  0.17009297  0.39953830     0.16200
O311        O  0.29399453  0.12676721  0.34393956    -0.26200
C312        C  0.31735384  0.11978315  0.37956782     0.06000
C313        C  0.30914135  0.14585332  0.41525583    -0.31100
O314        O  0.20575737  0.25202738  0.40609362    -0.22900
C315        C  0.18240783  0.25903650  0.37046947    -0.02900
C316        C  0.19058185  0.23294469  0.33478333    -0.17300
H317        H  0.23474783  0.16684312  0.29607620     0.20700
H318        H  0.26497254  0.21193591  0.45394798     0.19000
H319        H  0.32302445  0.14684896  0.44814089     0.19000
H320        H  0.17670748  0.23197300  0.30189242     0.14800
C321        C  0.21558604  0.67071003  0.14166807     0.30300
C322        C  0.23012699  0.70511224  0.16414855    -0.36100
C323        C  0.26485793  0.72321537  0.14580685     0.16300
C324        C  0.28401661  0.70855090  0.10805176     0.22100
C325        C  0.26947681  0.67415029  0.08557304    -0.34200
C326        C  0.23474600  0.65605008  0.10391193     0.16200
O327        O  0.18357484  0.64903410  0.15291718    -0.26200
C328        C  0.18207491  0.61987852  0.12202356     0.06000
C329        C  0.21335151  0.62297383  0.09059550    -0.31100
O330        O  0.31603530  0.73021311  0.09680508    -0.22900
C331        C  0.31754570  0.75936753  0.12769693    -0.02900
C332        C  0.28626358  0.75628795  0.15912208    -0.17300
H333        H  0.21540517  0.71693764  0.19384228     0.20700
H334        H  0.28420199  0.66232157  0.05588388     0.19000
H335        H  0.21968773  0.60405424  0.06182850     0.19000
H336        H  0.27993904  0.77520817  0.18789220     0.14800
C337        C  0.71425510  0.70692455  0.10979023     0.30300
C338        C  0.72522186  0.66890507  0.09258772    -0.36100
C339        C  0.76151993  0.65245436  0.10905061     0.16300
C340        C  0.78544350  0.67196453  0.14019068     0.22100
C341        C  0.77448130  0.70998609  0.15738629    -0.34200
C342        C  0.73818249  0.72643464  0.14092671     0.16200
O343        O  0.68126780  0.72760621  0.09968875    -0.26200
C344        C  0.68387115  0.76093088  0.12478473     0.06000
C345        C  0.71901551  0.76174649  0.15091976    -0.31100
O346        O  0.81841595  0.65127339  0.15032108    -0.22900
C347        C  0.81580927  0.61794025  0.12524208    -0.02900
C348        C  0.78067841  0.61713068  0.09908259    -0.17300
H349        H  0.70675201  0.65323140  0.06811877     0.20700
H350        H  0.79294676  0.72565535  0.18186086     0.19000
H351        H  0.72921603  0.78458386  0.17432894     0.19000
H352        H  0.77047910  0.59428798  0.07567869     0.14800
C353        C  0.21341786  0.67355267  0.36060163     0.30300
C354        C  0.22366016  0.71279546  0.34666857    -0.36100
C355        C  0.26104360  0.72753047  0.36195412     0.16300
C356        C  0.28664502  0.70531984  0.38900053     0.22100
C357        C  0.27640308  0.66607700  0.40293485    -0.34200
C358        C  0.23901547  0.65134495  0.38765567     0.16200
O359        O  0.17967556  0.65400883  0.35095136    -0.26200
C360        C  0.18352173  0.61875516  0.37227349     0.06000
C361        C  0.22017247  0.61547325  0.39538899    -0.31100
O362        O  0.32037713  0.72487287  0.39866929    -0.22900
C363        C  0.31651610  0.76013753  0.37737238    -0.02900
C364        C  0.27986865  0.76341666  0.35425290    -0.17300
H365        H  0.20389108  0.73059292  0.32543779     0.20700
H366        H  0.29616753  0.64828413  0.42417428     0.19000
H367        H  0.23156654  0.59059541  0.41533174     0.19000
H368        H  0.26846164  0.78830541  0.33433540     0.14800
C369        C  0.71250410  0.70460143  0.38734019     0.30300
C370        C  0.72182449  0.66439431  0.39859767    -0.36100
C371        C  0.76041742  0.65072559  0.38587794     0.16300
C372        C  0.78798824  0.67482287  0.36360690     0.22100
C373        C  0.77867691  0.71504471  0.35237097    -0.34200
C374        C  0.74006858  0.72870933  0.36507144     0.16200
O375        O  0.67798908  0.72345152  0.39537616    -0.26200
C376        C  0.68329438  0.76016591  0.37775698     0.06000
C377        C  0.72162207  0.76509043  0.35872000    -0.31100
O378        O  0.82243720  0.65589668  0.35541034    -0.22900
C379        C  0.81706405  0.61914754  0.37292621    -0.02900
C380        C  0.77877353  0.61428583  0.39206259    -0.17300
H381        H  0.70048379  0.64510452  0.41601244     0.20700
H382        H  0.79999522  0.73431485  0.33489864     0.19000
H383        H  0.73426883  0.79148719  0.34240053     0.19000
H384        H  0.76606350  0.58786658  0.40827716     0.14800
O385        O  0.54148818  0.78426121  0.54742792    -0.73900
O386        O  0.45843262  0.78325075  0.95692297    -0.73900
O387        O  0.54141357  0.78355797  0.95689241    -0.74000
O388        O  0.45845796  0.78391058  0.54757527    -0.74000
O389        O  0.45880800  0.85145406  0.54720502    -0.74000
O390        O  0.54053984  0.85109419  0.95618895    -0.74000
O391        O  0.45878150  0.85080154  0.95636297    -0.73900
O392        O  0.54071302  0.85180788  0.54700883    -0.74000
Ni393      Ni  0.49993716  0.78129100  0.50224606     1.25400
Ni394      Ni  0.49968547  0.85363308  0.00168095     1.25400
C395        C  0.55505382  0.81829004  0.56170780     0.88300
C396        C  0.44485895  0.81702797  0.94192911     0.88200
C397        C  0.55479936  0.81740302  0.94187112     0.88200
C398        C  0.44482279  0.81783544  0.56207193     0.88400
C399        C  0.65090986  0.79140335  0.87764835     0.03600
C400        C  0.61804528  0.78844578  0.90762640    -0.12500
C401        C  0.58745534  0.81812741  0.90793525     0.01100
C402        C  0.58906302  0.84995726  0.87677046    -0.11000
C403        C  0.62111449  0.85287873  0.84609538     0.03600
C404        C  0.65216488  0.82390991  0.84711809    -0.10400
H405        H  0.61695812  0.76384632  0.93168111     0.09200
H406        H  0.56532809  0.87264657  0.87649277     0.06800
H407        H  0.67648416  0.82605352  0.82287520     0.06600
C408        C  0.34894495  0.79127085  0.87743428     0.03600
C409        C  0.34807187  0.82359756  0.84669471    -0.12500
C410        C  0.37927316  0.85231411  0.84566301     0.01100
C411        C  0.41129961  0.84922361  0.87630971    -0.11000
C412        C  0.41244669  0.81765814  0.90780706     0.03600
C413        C  0.38155739  0.78832996  0.90774413    -0.10400
H414        H  0.32390516  0.82596750  0.82234147     0.09200
H415        H  0.43525443  0.87168396  0.87591908     0.06800
H416        H  0.38234083  0.76395598  0.93209313     0.06600
C417        C  0.65158791  0.79241129  0.62521756     0.03600
C418        C  0.61895541  0.78999680  0.59484301    -0.12500
C419        C  0.58802298  0.81930133  0.59521019     0.01100
C420        C  0.58935244  0.85068712  0.62688009    -0.11000
C421        C  0.62132080  0.85331622  0.65769814     0.03600
C422        C  0.65247107  0.82445731  0.65638813    -0.10400
H423        H  0.61798822  0.76581373  0.57028583     0.09200
H424        H  0.56542910  0.87317296  0.62750552     0.06800
H425        H  0.67665322  0.82661261  0.68072514     0.06600
C426        C  0.34959326  0.79107554  0.62763792     0.03600
C427        C  0.34824791  0.82380488  0.65786932    -0.12500
C428        C  0.37896590  0.85314174  0.65824829     0.01100
C429        C  0.41073141  0.85049456  0.62721138    -0.11000
C430        C  0.41227988  0.81864797  0.59612691     0.03600
C431        C  0.38195095  0.78872482  0.59688893    -0.10400
H432        H  0.32383403  0.82638053  0.68187325     0.09200
H433        H  0.43427991  0.87338317  0.62716176     0.06800
H434        H  0.38316863  0.76408115  0.57292063     0.06600
O435        O  0.58855228  0.98125982  0.79746598    -0.73900
O436        O  0.58802160  0.89964077  0.70653540    -0.73900
O437        O  0.58792678  0.89956401  0.79754302    -0.74000
O438        O  0.58878274  0.98130658  0.70665220    -0.74000
O439        O  0.65636748  0.98147867  0.70683257    -0.74000
O440        O  0.65550170  0.89894212  0.79748401    -0.74000
O441        O  0.65559426  0.89891256  0.70691947    -0.73900
O442        O  0.65614068  0.98159145  0.79739810    -0.74000
Ni443      Ni  0.58595259  0.94047407  0.75205263     1.25400
Ni444      Ni  0.65834616  0.94020174  0.75217812     1.25400
C445        C  0.62227524  0.99510279  0.81216479     0.88300
C446        C  0.62169982  0.88561677  0.69193031     0.88200
C447        C  0.62157714  0.88550410  0.81222028     0.88200
C448        C  0.62257292  0.99502345  0.69193826     0.88400
O449        O  0.34457072  0.89908320  0.70679100    -0.73900
O450        O  0.34358933  0.98082375  0.79796637    -0.73900
O451        O  0.34359956  0.98166716  0.70756278    -0.74000
O452        O  0.34475867  0.89833189  0.79723789    -0.74000
O453        O  0.41233747  0.89934153  0.79755541    -0.74000
O454        O  0.41119671  0.98149372  0.70734030    -0.74000
O455        O  0.41119162  0.98099260  0.79808329    -0.73900
O456        O  0.41215670  0.89983296  0.70667358    -0.74000
Ni457      Ni  0.34168868  0.93993841  0.75239165     1.25400
Ni458      Ni  0.41410298  0.94046635  0.75240838     1.25400
C459        C  0.37850704  0.88577335  0.69200524     0.88300
C460        C  0.37732528  0.99448435  0.81281552     0.88200
C461        C  0.37740087  0.99530217  0.69279158     0.88200
C462        C  0.37873683  0.88502304  0.81198574     0.88400
O463        O  0.45874620  0.02603090  0.95714505    -0.73900
O464        O  0.54059011  0.02627137  0.54759877    -0.73900
O465        O  0.45892076  0.02593377  0.54776249    -0.74000
O466        O  0.54060180  0.02645138  0.95685240    -0.74000
O467        O  0.54063723  0.09402540  0.95701451    -0.74000
O468        O  0.45844676  0.09352317  0.54750037    -0.74000
O469        O  0.54083980  0.09386011  0.54728049    -0.73900
O470        O  0.45796327  0.09361304  0.95746184    -0.74000
Ni471      Ni  0.49974124  0.02377114  0.00231096     1.25400
Ni472      Ni  0.49946450  0.09618948  0.50229797     1.25400
C473        C  0.44438037  0.05970829  0.94299598     0.88300
C474        C  0.55451905  0.06004980  0.56194137     0.88200
C475        C  0.44494427  0.05967291  0.56219329     0.88200
C476        C  0.55445989  0.06026583  0.94240016     0.88400
C477        C  0.34886853  0.08785214  0.87982239     0.03600
C478        C  0.38129776  0.08921524  0.91042176    -0.12500
C479        C  0.41131544  0.05916825  0.90996074     0.01100
C480        C  0.40925282  0.02792617  0.87836407    -0.11000
C481        C  0.37755021  0.02642222  0.84722466     0.03600
C482        C  0.34720187  0.05621433  0.84829078    -0.10400
H483        H  0.38336441  0.11349512  0.93470961     0.09200
H484        H  0.43259178  0.00482640  0.87781010     0.06800
H485        H  0.32271981  0.05513884  0.82407708     0.06600
C486        C  0.64932255  0.08945891  0.87835768     0.03600
C487        C  0.65149253  0.05753973  0.84719872    -0.12500
C488        C  0.62161032  0.02728290  0.84641476     0.01100
C489        C  0.58988230  0.02857663  0.87762984    -0.11000
C490        C  0.58729337  0.06009842  0.90891420     0.03600
C491        C  0.61676094  0.09072176  0.90881950    -0.10400
H492        H  0.67606767  0.05653406  0.82310326     0.09200
H493        H  0.56696432  0.00505633  0.87741128     0.06800
H494        H  0.61435168  0.11520537  0.93281044     0.06600
C495        C  0.65042102  0.08830331  0.62397183     0.03600
C496        C  0.65256042  0.05664873  0.65553864    -0.12500
C497        C  0.62205785  0.02698558  0.65739547     0.01100
C498        C  0.58988923  0.02855629  0.62677075    -0.11000
C499        C  0.58746218  0.05976117  0.59512270     0.03600
C500        C  0.61738776  0.08981533  0.59422259    -0.10400
H501        H  0.67752227  0.05545376  0.67912780     0.09200
H502        H  0.56654506  0.00546828  0.62765063     0.06800
H503        H  0.61492423  0.11403616  0.56991555     0.06600
C504        C  0.35085376  0.08978561  0.62634297     0.03600
C505        C  0.34820771  0.05778130  0.65744558    -0.12500
C506        C  0.37798836  0.02736123  0.65844437     0.01100
C507        C  0.40968774  0.02828659  0.62720879    -0.11000
C508        C  0.41231227  0.05954652  0.59570720     0.03600
C509        C  0.38318812  0.09035327  0.59566141    -0.10400
H510        H  0.32372779  0.05712741  0.68166982     0.09200
H511        H  0.43250587  0.00467025  0.62752213     0.06800
H512        H  0.38532500  0.11397847  0.57063898     0.06600
O513        O  0.95910463  0.52714091  0.70291571    -0.73900
O514        O  0.04111763  0.52813346  0.79346992    -0.73900
O515        O  0.95934501  0.52780729  0.79374466    -0.74000
O516        O  0.04101015  0.52756458  0.70262634    -0.74000
O517        O  0.04124568  0.59510817  0.70223591    -0.74000
O518        O  0.95851561  0.59534372  0.79314470    -0.74000
O519        O  0.04149939  0.59568276  0.79288560    -0.73900
O520        O  0.95821686  0.59468580  0.70260372    -0.74000
Ni521      Ni  0.00016977  0.52531636  0.74819732     1.25400
Ni522      Ni  0.99987300  0.59765871  0.74767804     1.25400
C523        C  0.94468804  0.56065193  0.68829219     0.88300
C524        C  0.05508362  0.56190201  0.80786564     0.88200
C525        C  0.94512954  0.56149208  0.80814380     0.88200
C526        C  0.05492326  0.56120569  0.68773143     0.88400
O527        O  0.04200927  0.28546452  0.79253063    -0.73900
O528        O  0.95910708  0.28514632  0.70278473    -0.73900
O529        O  0.04147038  0.28559090  0.70250836    -0.74000
O530        O  0.95935778  0.28495352  0.79305066    -0.74000
O531        O  0.95933537  0.35252833  0.79324476    -0.74000
O532        O  0.04091337  0.35318094  0.70223766    -0.74000
O533        O  0.95924867  0.35273464  0.70249395    -0.73900
O534        O  0.04118303  0.35304744  0.79285404    -0.74000
Ni535      Ni  0.00049173  0.28285652  0.74773614     1.25400
Ni536      Ni  0.00014363  0.35527543  0.74773815     1.25400
C537        C  0.05558009  0.31937544  0.80698072     0.88300
C538        C  0.94538663  0.31893747  0.68812240     0.88200
C539        C  0.05492215  0.31945710  0.68780466     0.88200
C540        C  0.94552297  0.31869569  0.80769717     0.88400
O541        O  0.15520852  0.48069272  0.95266468    -0.73900
O542        O  0.15631700  0.39740824  0.54241537    -0.73900
O543        O  0.15640426  0.39819294  0.95200414    -0.74000
O544        O  0.15532306  0.48000483  0.54311833    -0.74000
O545        O  0.08773749  0.47920715  0.54318849    -0.74000
O546        O  0.08880174  0.39804061  0.95181181    -0.74000
O547        O  0.08872072  0.39754564  0.54254798    -0.73900
O548        O  0.08763084  0.47968646  0.95231438    -0.74000
Ni549      Ni  0.15825641  0.43911128  0.99755348     1.25400
Ni550      Ni  0.08584315  0.43856465  0.99747218     1.25400
C551        C  0.12123699  0.49399014  0.93787975     0.88300
C552        C  0.12250702  0.38376013  0.55715260     0.88200
C553        C  0.12267772  0.38453654  0.93712386     0.88200
C554        C  0.12136700  0.49330034  0.55786856     0.88400
C555        C  0.15107331  0.58764434  0.87226398     0.03600
C556        C  0.11845533  0.59056801  0.84195490    -0.12500
C557        C  0.08754338  0.56126078  0.84194436     0.01100
C558        C  0.08868889  0.52972353  0.87348275    -0.11000
C559        C  0.12071329  0.52665851  0.90414203     0.03600
C560        C  0.15192637  0.55536086  0.90306155    -0.10400
H561        H  0.11767873  0.61491722  0.81757530     0.09200
H562        H  0.06472334  0.50727548  0.87391050     0.06800
H563        H  0.17608967  0.55301479  0.92742212     0.06600
C564        C  0.15097942  0.29105262  0.87021423     0.03600
C565        C  0.15270506  0.32270227  0.90173551    -0.12500
C566        C  0.12245288  0.35259764  0.90272043     0.01100
C567        C  0.09079295  0.35117795  0.87152792    -0.11000
C568        C  0.08865912  0.31990760  0.83998102     0.03600
C569        C  0.11858009  0.28976914  0.83958263    -0.10400
H570        H  0.17715176  0.32371064  0.92599602     0.09200
H571        H  0.06752206  0.37434767  0.87202857     0.06800
H572        H  0.11645581  0.26547045  0.81532364     0.06600
C573        C  0.14911071  0.28941526  0.62385226     0.03600
C574        C  0.11674821  0.28885766  0.65448484    -0.12500
C575        C  0.08756363  0.31960102  0.65431062     0.01100
C576        C  0.09015728  0.35080063  0.62273020    -0.11000
C577        C  0.12190035  0.35172782  0.59154187     0.03600
C578        C  0.15173491  0.32135801  0.59266447    -0.10400
H579        H  0.11463694  0.26529036  0.67957752     0.09200
H580        H  0.06729469  0.37437262  0.62233342     0.06800
H581        H  0.17624944  0.32200819  0.56848351     0.06600
C582        C  0.15006517  0.58814271  0.62209525     0.03600
C583        C  0.11769851  0.59045573  0.65283672    -0.12500
C584        C  0.08744864  0.56045058  0.65365349     0.01100
C585        C  0.08907952  0.52856709  0.62262341    -0.11000
C586        C  0.12084835  0.52596136  0.59158770     0.03600
C587        C  0.15148890  0.55537757  0.59191339    -0.10400
H588        H  0.11642344  0.61512597  0.67676761     0.09200
H589        H  0.06559292  0.50561497  0.62271492     0.06800
H590        H  0.17590659  0.55282728  0.56791094     0.06600
O591        O  0.84378745  0.39734160  0.95260402    -0.73900
O592        O  0.84418285  0.47992739  0.54313981    -0.73900
O593        O  0.84440731  0.47998154  0.95256937    -0.74000
O594        O  0.84348539  0.39736244  0.54316028    -0.74000
O595        O  0.91107155  0.39764118  0.54345328    -0.74000
O596        O  0.91198371  0.47933626  0.95255146    -0.74000
O597        O  0.91175774  0.47928642  0.54355420    -0.73900
O598        O  0.91137803  0.39765890  0.95265960    -0.74000
Ni599      Ni  0.84151560  0.43868538  0.99784648     1.25400
Ni600      Ni  0.91391483  0.43844975  0.49805320     1.25400
C601        C  0.87767135  0.38383011  0.93789974     0.88300
C602        C  0.87805302  0.49325587  0.55815069     0.88200
C603        C  0.87834979  0.49340293  0.93785196     0.88200
C604        C  0.87728617  0.38386992  0.55810395     0.88400
C605        C  0.85064516  0.28950462  0.87169849     0.03600
C606        C  0.84845479  0.32143450  0.90283313    -0.12500
C607        C  0.87836447  0.35165784  0.90366012     0.01100
C608        C  0.91012919  0.35033973  0.87249872    -0.11000
C609        C  0.91271152  0.31883079  0.84120168     0.03600
C610        C  0.88322825  0.28822305  0.84126585    -0.10400
H611        H  0.82385075  0.32246357  0.92689167     0.09200
H612        H  0.93306493  0.37384281  0.87275034     0.06800
H613        H  0.88564061  0.26374067  0.81727388     0.06600
C614        C  0.84930329  0.58775709  0.87276933     0.03600
C615        C  0.88208779  0.59062308  0.84267545    -0.12500
C616        C  0.91252514  0.56078046  0.84215078     0.01100
C617        C  0.91084227  0.52887329  0.87322048    -0.11000
C618        C  0.87886320  0.52604530  0.90400519     0.03600
C619        C  0.84796854  0.55517308  0.90318855    -0.10400
H620        H  0.88323135  0.61529187  0.81871165     0.09200
H621        H  0.93446857  0.50607020  0.87336114     0.06800
H622        H  0.82372494  0.55309537  0.92753061     0.06600
C623        C  0.84809343  0.58644418  0.62483022     0.03600
C624        C  0.84720325  0.55436638  0.59370192    -0.12500
C625        C  0.87837985  0.52553813  0.59239221     0.01100
C626        C  0.91035733  0.52820524  0.62318738    -0.11000
C627        C  0.91168787  0.55961159  0.65482739     0.03600
C628        C  0.88074144  0.58890099  0.65518420    -0.10400
H629        H  0.82301012  0.55217657  0.56938256     0.09200
H630        H  0.93429806  0.50573772  0.62255574     0.06800
H631        H  0.88171617  0.61311050  0.67970842     0.06600
C632        C  0.84991535  0.29017910  0.62556801     0.03600
C633        C  0.84759690  0.32195266  0.59416778    -0.12500
C634        C  0.87784640  0.35188256  0.59260434     0.01100
C635        C  0.90990581  0.35048125  0.62338249    -0.11000
C636        C  0.91250152  0.31915810  0.65486844     0.03600
C637        C  0.88285640  0.28882640  0.65544788    -0.10400
H638        H  0.82272114  0.32301996  0.57045984     0.09200
H639        H  0.93306008  0.37376538  0.62270382     0.06800
H640        H  0.88546740  0.26449887  0.67960399     0.06600
C641        C  0.23444018  0.22650853  0.61155885     0.30300
C642        C  0.27296055  0.21545367  0.59605317    -0.35300
C643        C  0.28743165  0.17784139  0.61084529     0.16300
C644        C  0.26563228  0.15279972  0.63894464     0.22100
C645        C  0.22711609  0.16386269  0.65446971    -0.34200
C646        C  0.21264120  0.20147509  0.63966859     0.16200
O647        O  0.21506132  0.26034740  0.60208409    -0.26200
C648        C  0.18033094  0.25714294  0.62453362     0.06000
C649        C  0.17725219  0.22086810  0.64838820    -0.31100
O650        O  0.28497972  0.11891866  0.64832166    -0.22900
C651        C  0.31968699  0.12211277  0.62581857    -0.02900
C652        C  0.32278506  0.15842087  0.60203822    -0.17300
H653        H  0.29040865  0.23479255  0.57396302     0.20700
H654        H  0.20965486  0.14451000  0.67653271     0.19000
H655        H  0.15265581  0.20987830  0.66904008     0.19000
H656        H  0.34735732  0.16939961  0.58134453     0.14800
C657        C  0.77071069  0.22124816  0.60524427     0.30300
C658        C  0.73958493  0.20286074  0.58053860    -0.36100
C659        C  0.71990493  0.17034621  0.60154613     0.16300
C660        C  0.73013184  0.15674939  0.64384786     0.22100
C661        C  0.76127246  0.17511786  0.66853753    -0.34200
C662        C  0.78094038  0.20763599  0.64753839     0.16200
O663        O  0.79317087  0.25207941  0.59214345    -0.26200
C664        C  0.81836291  0.25826396  0.62638426     0.06000
C665        C  0.81187818  0.23146513  0.66189311    -0.31100
O666        O  0.70753364  0.12606376  0.65706408    -0.22900
C667        C  0.68224668  0.11994738  0.62289716    -0.02900
C668        C  0.68882195  0.14663839  0.58730276    -0.17300
H669        H  0.73124098  0.21321903  0.54730900     0.20700
H670        H  0.76956231  0.16481305  0.70180473     0.19000
H671        H  0.82730600  0.22972454  0.69387637     0.19000
H672        H  0.67329203  0.14844966  0.55538491     0.14800
C673        C  0.72853687  0.15788153  0.85602108     0.30300
C674        C  0.75932153  0.17597147  0.83049811    -0.36100
C675        C  0.78026665  0.20780304  0.85126468     0.16300
C676        C  0.77148944  0.22103836  0.89409655     0.22100
C677        C  0.74071118  0.20294131  0.91962570    -0.34200
C678        C  0.71975960  0.17111332  0.89885452     0.16200
O679        O  0.70520203  0.12759193  0.84330521    -0.26200
C680        C  0.68088736  0.12137640  0.87832141     0.06000
C681        C  0.68876556  0.14764089  0.91393814    -0.31100
O682        O  0.79479894  0.25135581  0.90678821    -0.22900
C683        C  0.81909383  0.25758075  0.87175599    -0.02900
C684        C  0.81123039  0.23129874  0.83615606    -0.17300
H685        H  0.76646358  0.16591562  0.79681841     0.20700
H686        H  0.73356075  0.21300674  0.95329930     0.19000
H687        H  0.67428879  0.14908879  0.94648416     0.19000
H688        H  0.82569497  0.22985734  0.80360329     0.14800
C689        C  0.27098566  0.15741408  0.85633065     0.30300
C690        C  0.24133367  0.17648875  0.83005479    -0.36100
C691        C  0.22069824  0.20868822  0.85049996     0.16300
C692        C  0.22872351  0.22135272  0.89372683     0.22100
C693        C  0.25837099  0.20227742  0.91999924    -0.34200
C694        C  0.27900204  0.17007828  0.89955898     0.16200
O695        O  0.29401193  0.12678408  0.84394127    -0.26200
C696        C  0.31734906  0.11977963  0.87958231     0.06000
C697        C  0.30911516  0.14582949  0.91528235    -0.31100
O698        O  0.20573502  0.25200923  0.90611339    -0.22900
C699        C  0.18240834  0.25903813  0.87047543    -0.02900
C700        C  0.19060493  0.23296643  0.83477805    -0.17300
H701        H  0.23479662  0.16688759  0.79605978     0.20700
H702        H  0.26492000  0.21189010  0.95398701     0.19000
H703        H  0.32297942  0.14680548  0.94817805     0.19000
H704        H  0.17675100  0.23201425  0.80187579     0.14800
C705        C  0.21556279  0.67073861  0.64164381     0.30300
C706        C  0.23007980  0.70516374  0.66410044    -0.36100
C707        C  0.26483000  0.72324862  0.64578108     0.16300
C708        C  0.28402815  0.70854619  0.60806890     0.22100
C709        C  0.26951240  0.67412285  0.58561436    -0.34200
C710        C  0.23476248  0.65604109  0.60393065     0.16200
O711        O  0.18354038  0.64907308  0.65287850    -0.26200
C712        C  0.18207271  0.61988682  0.62201833     0.06000
C713        C  0.21338276  0.62295123  0.59062730    -0.31100
O714        O  0.31605821  0.73019712  0.59683605    -0.22900
C715        C  0.31753721  0.75938233  0.62769385    -0.02900
C716        C  0.28622173  0.75633476  0.65908249    -0.17300
H717        H  0.21532675  0.71701888  0.69376047     0.20700
H718        H  0.28426892  0.66226433  0.55595900     0.19000
H719        H  0.21975266  0.60400180  0.56189384     0.19000
H720        H  0.27986459  0.77528526  0.68781918     0.14800
C721        C  0.71426003  0.70691985  0.60977672     0.30300
C722        C  0.72522872  0.66890096  0.59257357    -0.36100
C723        C  0.76152807  0.65245188  0.60903568     0.16300
C724        C  0.78545118  0.67196316  0.64017536     0.22100
C725        C  0.77448722  0.70998408  0.65737125    -0.34200
C726        C  0.73818713  0.72643077  0.64091280     0.16200
O727        O  0.68127103  0.72759997  0.59967692    -0.26200
C728        C  0.68387313  0.76092440  0.62477372     0.06000
C729        C  0.71901832  0.76174125  0.65090739    -0.31100
O730        O  0.81842383  0.65127271  0.65030706    -0.22900
C731        C  0.81581785  0.61793868  0.62522946    -0.02900
C732        C  0.78068734  0.61712813  0.59906920    -0.17300
H733        H  0.70675897  0.65322617  0.56810539     0.20700
H734        H  0.79295194  0.72565390  0.68184607     0.19000
H735        H  0.72921844  0.78457868  0.67431663     0.19000
H736        H  0.77048813  0.59428414  0.57566678     0.14800
C737        C  0.21342548  0.67354793  0.86059231     0.30300
C738        C  0.22368263  0.71277780  0.84662751    -0.36100
C739        C  0.26105977  0.72751897  0.86192533     0.16300
C740        C  0.28664183  0.70532600  0.88901179     0.22100
C741        C  0.27638520  0.66609610  0.90297748    -0.34200
C742        C  0.23900386  0.65135801  0.88768636     0.16200
O743        O  0.17968601  0.65400109  0.85093635    -0.26200
C744        C  0.18351458  0.61876316  0.87229476     0.06000
C745        C  0.22015125  0.61549517  0.89544067    -0.31100
O746        O  0.32037059  0.72488218  0.89868753    -0.22900
C747        C  0.31652711  0.76013149  0.87735538    -0.02900
C748        C  0.27989405  0.76339681  0.85420462    -0.17300
H749        H  0.20392887  0.73056148  0.82536513     0.20700
H750        H  0.29613420  0.64831714  0.92424891     0.19000
H751        H  0.23153162  0.59063216  0.91541545     0.19000
H752        H  0.26850055  0.78827103  0.83425557     0.14800
C753        C  0.71250743  0.70460278  0.88733783     0.30300
C754        C  0.72182899  0.66439779  0.89860279    -0.36100
C755        C  0.76041753  0.65072455  0.88587315     0.16300
C756        C  0.78798333  0.67481559  0.86358630     0.22100
C757        C  0.77867076  0.71503538  0.85234266    -0.34200
C758        C  0.74006668  0.72870454  0.86505303     0.16200
O759        O  0.67799590  0.72345632  0.89538176    -0.26200
C760        C  0.68329810  0.76016690  0.87775189     0.06000
C761        C  0.72162051  0.76508543  0.85869962    -0.31100
O762        O  0.82242957  0.65588633  0.85538453    -0.22900
C763        C  0.81705960  0.61914142  0.87291260    -0.02900
C764        C  0.77877366  0.61428563  0.89206222    -0.17300
H765        H  0.70049257  0.64511306  0.91603071     0.20700
H766        H  0.79998521  0.73430090  0.83485825     0.19000
H767        H  0.73426439  0.79147805  0.84236926     0.19000
H768        H  0.76606648  0.58787130  0.90828926     0.14800
loop_ 
_geom_bond_atom_site_label_1 
_geom_bond_atom_site_label_2 
_geom_bond_distance 
_geom_bond_site_symmetry_2 
_ccdc_geom_bond_type 
O1           Ni9   1.924       .  S
O1           C11   1.282       .  A
O2         Ni393   1.925       .  S
O2           C12   1.282       .  A
O3         Ni393   1.925       .  S
O3           C13   1.282       .  A
O4           Ni9   1.925       .  S
O4           C14   1.282       .  A
O5         Ni394   1.914       .  S
O5           C14   1.281       .  A
O6          Ni10   1.914       .  S
O6           C13   1.281       .  A
O7          Ni10   1.912       .  S
O7           C12   1.281       .  A
O8         Ni394   1.913       .  S
O8           C11   1.281       .  A
Ni9         O386   1.925   1_554  S
Ni9         O387   1.925   1_554  S
Ni9        Ni394   2.389       .  S
Ni10        O389   1.914       .  S
Ni10        O392   1.913       .  S
Ni10       Ni393   2.389       .  S
C11          C35   1.477       .  S
C12          C28   1.476       .  S
C13          C17   1.478       .  S
C14          C46   1.478       .  S
C15         C376   1.486       .  S
C15          C16   1.409       .  A
C15          C20   1.407       .  A
C16          C17   1.407       .  A
C16          H21   1.084       .  S
C17          C18   1.403       .  A
C18          C19   1.401       .  A
C18          H22   1.084       .  S
C19          C63   1.476       .  S
C19          C20   1.402       .  A
C20          H23   1.082       .  S
C24         C363   1.484       .  S
C24          C25   1.407       .  A
C24          C29   1.408       .  A
C25          C26   1.400       .  A
C25          H30   1.081       .  S
C26          C78   1.474       .  S
C26          C27   1.400       .  A
C27          C28   1.403       .  A
C27          H31   1.084       .  S
C28          C29   1.406       .  A
C29          H32   1.084       .  S
C33         C344   1.489       .  S
C33          C34   1.409       .  A
C33          C38   1.408       .  A
C34          C35   1.407       .  A
C34          H39   1.084       .  S
C35          C36   1.402       .  A
C36          C37   1.401       .  A
C36          H40   1.084       .  S
C37          C62   1.476       .  S
C37          C38   1.403       .  A
C38          H41   1.081       .  S
C42         C331   1.488       .  S
C42          C43   1.408       .  A
C42          C47   1.409       .  A
C43          C44   1.402       .  A
C43          H48   1.081       .  S
C44          C75   1.474       .  S
C44          C45   1.401       .  A
C45          C46   1.402       .  A
C45          H49   1.084       .  S
C46          C47   1.407       .  A
C47          H50   1.083       .  S
O51         Ni59   1.911       .  S
O51          C61   1.281       .  A
O52         Ni59   1.914       .  S
O52          C62   1.281       .  A
O53         Ni59   1.914       .  S
O53          C63   1.281       .  A
O54         Ni59   1.912       .  S
O54          C64   1.281       .  A
O55         Ni60   1.920       .  S
O55          C64   1.281       .  A
O56         Ni60   1.920       .  S
O56          C63   1.282       .  A
O57         Ni60   1.920       .  S
O57          C62   1.282       .  A
O58         Ni60   1.921       .  S
O58          C61   1.282       .  A
Ni59        Ni60   2.390       .  S
C61         C104   1.473   1_565  S
C64         C113   1.474   1_565  S
O65         Ni73   1.917       .  S
O65          C75   1.282       .  A
O66         Ni73   1.916       .  S
O66          C76   1.280       .  A
O67         Ni73   1.920       .  S
O67          C77   1.281       .  A
O68         Ni73   1.919       .  S
O68          C78   1.282       .  A
O69         Ni74   1.912       .  S
O69          C78   1.280       .  A
O70         Ni74   1.909       .  S
O70          C77   1.281       .  A
O71         Ni74   1.911       .  S
O71          C76   1.281       .  A
O72         Ni74   1.914       .  S
O72          C75   1.281       .  A
Ni73        Ni74   2.391       .  S
C76          C97   1.471   1_565  S
C77         C122   1.472   1_565  S
O79         Ni87   1.910       .  S
O79          C89   1.280       .  A
O80        Ni471   1.909       .  S
O80          C90   1.280       .  A
O81        Ni471   1.911       .  S
O81          C91   1.280       .  A
O82         Ni87   1.913       .  S
O82          C92   1.281       .  A
O83        Ni472   1.916       .  S
O83          C92   1.281       .  A
O84         Ni88   1.912       .  S
O84          C91   1.280       .  A
O85         Ni88   1.915       .  S
O85          C90   1.281       .  A
O86        Ni472   1.915       .  S
O86          C89   1.281       .  A
Ni87        O464   1.909       .  S
Ni87        O465   1.911       .  S
Ni87       Ni472   2.391       .  S
Ni88        O467   1.916   1_554  S
Ni88        O470   1.915   1_554  S
Ni88       Ni471   2.391       .  S
C89          C95   1.470       .  S
C90         C115   1.470       .  S
C91         C124   1.469       .  S
C92         C106   1.473       .  S
C93         C312   1.481       .  S
C93          C94   1.407       .  A
C93          C98   1.406       .  A
C94          C95   1.402       .  A
C94          H99   1.082       .  S
C95          C96   1.398       .  A
C96          C97   1.399       .  A
C96         H100   1.084       .  S
C97          C98   1.405       .  A
C98         H101   1.084       .  S
C102        C296   1.482       .  S
C102        C103   1.406       .  A
C102        C107   1.407       .  A
C103        C104   1.404       .  A
C103        H108   1.084       .  S
C104        C105   1.401       .  A
C105        C106   1.400       .  A
C105        H109   1.084       .  S
C106        C107   1.403       .  A
C107        H110   1.082       .  S
C111        C283   1.482       .  S
C111        C112   1.408       .  A
C111        C116   1.406       .  A
C112        C113   1.406       .  A
C112        H117   1.084       .  S
C113        C114   1.401       .  A
C114        C115   1.399       .  A
C114        H118   1.084       .  S
C115        C116   1.401       .  A
C116        H119   1.082       .  S
C120        C267   1.483       .  S
C120        C121   1.408       .  A
C120        C125   1.405       .  A
C121        C122   1.406       .  A
C121        H126   1.084       .  S
C122        C123   1.401       .  A
C123        C124   1.398       .  A
C123        H127   1.084       .  S
C124        C125   1.400       .  A
C125        H128   1.081       .  S
O129       Ni137   1.913   1_655  S
O129        C139   1.281       .  A
O130       Ni137   1.912       .  S
O130        C140   1.281       .  A
O131       Ni137   1.914   1_655  S
O131        C141   1.281       .  A
O132       Ni137   1.915       .  S
O132        C142   1.281       .  A
O133       Ni138   1.925   1_455  S
O133        C142   1.282       .  A
O134       Ni138   1.925       .  S
O134        C141   1.282       .  A
O135       Ni138   1.925   1_455  S
O135        C140   1.282       .  A
O136       Ni138   1.924       .  S
O136        C139   1.282       .  A
Ni137      Ni138   2.389   1_455  S
C139        C243   1.477       .  S
C140        C173   1.476       .  S
C141        C232   1.478       .  S
C142        C200   1.478       .  S
O143       Ni151   1.915       .  S
O143        C153   1.281       .  A
O144       Ni151   1.914   1_655  S
O144        C154   1.281       .  A
O145       Ni151   1.911       .  S
O145        C155   1.280       .  A
O146       Ni151   1.916   1_655  S
O146        C156   1.281       .  A
O147       Ni152   1.913   1_655  S
O147        C156   1.281       .  A
O148       Ni152   1.911       .  S
O148        C155   1.280       .  A
O149       Ni152   1.909   1_655  S
O149        C154   1.280       .  A
O150       Ni152   1.910       .  S
O150        C153   1.280       .  A
Ni151      Ni152   2.392       .  S
C153        C184   1.469       .  S
C154        C252   1.470       .  S
C155        C191   1.469       .  S
C156        C225   1.473       .  S
O157       Ni165   1.919       .  S
O157        C167   1.282       .  A
O158       Ni549   1.920   1_554  S
O158        C168   1.281       .  A
O159       Ni165   1.916       .  S
O159        C169   1.280       .  A
O160       Ni549   1.917   1_554  S
O160        C170   1.282       .  A
O161       Ni550   1.913   1_554  S
O161        C170   1.281       .  A
O162       Ni166   1.911       .  S
O162        C169   1.281       .  A
O163       Ni550   1.910   1_554  S
O163        C168   1.281       .  A
O164       Ni166   1.912       .  S
O164        C167   1.280       .  A
Ni165       O542   1.920       .  S
Ni165       O544   1.917       .  S
Ni165      Ni166   2.390       .  S
Ni166       O545   1.913       .  S
Ni166       O547   1.910       .  S
C167        C175   1.474       .  S
C168        C193   1.472       .  S
C169        C182   1.471       .  S
C170        C202   1.474       .  S
C171        C360   1.484       .  S
C171        C172   1.408       .  A
C171        C176   1.407       .  A
C172        C173   1.406       .  A
C172        H177   1.084       .  S
C173        C174   1.403       .  A
C174        C175   1.401       .  A
C174        H178   1.084       .  S
C175        C176   1.400       .  A
C176        H179   1.081       .  S
C180        C315   1.481       .  S
C180        C181   1.406       .  A
C180        C185   1.406       .  A
C181        C182   1.405       .  A
C181        H186   1.084       .  S
C182        C183   1.399       .  A
C183        C184   1.398       .  A
C183        H187   1.084       .  S
C184        C185   1.402       .  A
C185        H188   1.082       .  S
C189        C264   1.483       .  S
C189        C190   1.405       .  A
C189        C194   1.408       .  A
C190        C191   1.400       .  A
C190        H195   1.081       .  S
C191        C192   1.398       .  A
C192        C193   1.401       .  A
C192        H196   1.084       .  S
C193        C194   1.406       .  A
C194        H197   1.084       .  S
C198        C328   1.488       .  S
C198        C199   1.409       .  A
C198        C203   1.408       .  A
C199        C200   1.407       .  A
C199        H204   1.083       .  S
C200        C201   1.402       .  A
C201        C202   1.401       .  A
C201        H205   1.084       .  S
C202        C203   1.402       .  A
C203        H206   1.081       .  S
O207       Ni215   1.920       .  S
O207        C217   1.282       .  A
O208       Ni599   1.919   1_554  S
O208        C218   1.282       .  A
O209       Ni215   1.920       .  S
O209        C219   1.282       .  A
O210       Ni599   1.920   1_554  S
O210        C220   1.281       .  A
O211       Ni216   1.911   1_554  S
O211        C220   1.281       .  A
O212       Ni600   1.914       .  S
O212        C219   1.281       .  A
O213       Ni216   1.914   1_554  S
O213        C218   1.281       .  A
O214       Ni600   1.911       .  S
O214        C217   1.281       .  A
Ni215       O592   1.919       .  S
Ni215       O594   1.920       .  S
Ni215      Ni600   2.390       .  S
Ni216       O596   1.914       .  S
Ni216       O598   1.911       .  S
Ni216      Ni599   2.390       .  S
C217        C223   1.473       .  S
C218        C241   1.476       .  S
C219        C234   1.476       .  S
C220        C250   1.474       .  S
C221        C299   1.482       .  S
C221        C222   1.406       .  A
C221        C226   1.407       .  A
C222        C223   1.404       .  A
C222        H227   1.084       .  S
C223        C224   1.401       .  A
C224        C225   1.400       .  A
C224        H228   1.084       .  S
C225        C226   1.403       .  A
C226        H229   1.082       .  S
C230        C379   1.486       .  S
C230        C231   1.408       .  A
C230        C235   1.407       .  A
C231        C232   1.408       .  A
C231        H236   1.084       .  S
C232        C233   1.403       .  A
C233        C234   1.401       .  A
C233        H237   1.084       .  S
C234        C235   1.402       .  A
C235        H238   1.082       .  S
C239        C347   1.489       .  S
C239        C240   1.408       .  A
C239        C244   1.409       .  A
C240        C241   1.403       .  A
C240        H245   1.081       .  S
C241        C242   1.401       .  A
C242        C243   1.402       .  A
C242        H246   1.084       .  S
C243        C244   1.407       .  A
C244        H247   1.084       .  S
C248        C280   1.482       .  S
C248        C249   1.408       .  A
C248        C253   1.406       .  A
C249        C250   1.406       .  A
C249        H254   1.084       .  S
C250        C251   1.401       .  A
C251        C252   1.399       .  A
C251        H255   1.084       .  S
C252        C253   1.400       .  A
C253        H256   1.082       .  S
C257        C262   1.379       .  A
C257        C258   1.401       .  A
C257        O263   1.318       .  A
C258        C259   1.402       .  A
C258        H269   1.083       .  S
C259        C268   1.357       .  A
C259        C260   1.379       .  A
C260        C261   1.401       .  A
C260        O266   1.318       .  A
C261        C262   1.402       .  A
C261        H270   1.083       .  S
C262        C265   1.357       .  A
O263        C264   1.331       .  A
C264        C265   1.396       .  A
C265        H271   1.081       .  S
O266        C267   1.332       .  A
C267        C268   1.396       .  A
C268        H272   1.081       .  S
C273        C278   1.379       .  A
C273        C274   1.402       .  A
C273        O279   1.318       .  A
C274        C275   1.402       .  A
C274        H285   1.083       .  S
C275        C284   1.359       .  A
C275        C276   1.380       .  A
C276        C277   1.402       .  A
C276        O282   1.318       .  A
C277        C278   1.402       .  A
C277        H286   1.083       .  S
C278        C281   1.358       .  A
O279        C280   1.332       .  A
C280        C281   1.395       .  A
C281        H287   1.082       .  S
O282        C283   1.332       .  A
C283        C284   1.396       .  A
C284        H288   1.082       .  S
C289        C294   1.380       .  A
C289        C290   1.403       .  A
C289        O295   1.318       .  A
C290        C291   1.402       .  A
C290        H301   1.083       .  S
C291        C300   1.360       .  A
C291        C292   1.380       .  A
C292        C293   1.403       .  A
C292        O298   1.318       .  A
C293        C294   1.402       .  A
C293        H302   1.083       .  S
C294        C297   1.360       .  A
O295        C296   1.332       .  A
C296        C297   1.395       .  A
C297        H303   1.082       .  S
O298        C299   1.332       .  A
C299        C300   1.395       .  A
C300        H304   1.082       .  S
C305        C310   1.380       .  A
C305        C306   1.403       .  A
C305        O311   1.318       .  A
C306        C307   1.402       .  A
C306        H317   1.083       .  S
C307        C316   1.360       .  A
C307        C308   1.380       .  A
C308        C309   1.402       .  A
C308        O314   1.318       .  A
C309        C310   1.402       .  A
C309        H318   1.083       .  S
C310        C313   1.360       .  A
O311        C312   1.332       .  A
C312        C313   1.395       .  A
C313        H319   1.082       .  S
O314        C315   1.332       .  A
C315        C316   1.395       .  A
C316        H320   1.082       .  S
C321        C326   1.378       .  A
C321        C322   1.403       .  A
C321        O327   1.320       .  A
C322        C323   1.404       .  A
C322        H333   1.082       .  S
C323        C332   1.360       .  A
C323        C324   1.378       .  A
C324        C325   1.403       .  A
C324        O330   1.319       .  A
C325        C326   1.404       .  A
C325        H334   1.082       .  S
C326        C329   1.360       .  A
O327        C328   1.333       .  A
C328        C329   1.397       .  A
C329        H335   1.081       .  S
O330        C331   1.333       .  A
C331        C332   1.397       .  A
C332        H336   1.081       .  S
C337        C342   1.378       .  A
C337        C338   1.404       .  A
C337        O343   1.320       .  A
C338        C339   1.404       .  A
C338        H349   1.082       .  S
C339        C348   1.360       .  A
C339        C340   1.378       .  A
C340        C341   1.404       .  A
C340        O346   1.320       .  A
C341        C342   1.404       .  A
C341        H350   1.082       .  S
C342        C345   1.360       .  A
O343        C344   1.333       .  A
C344        C345   1.397       .  A
C345        H351   1.081       .  S
O346        C347   1.333       .  A
C347        C348   1.397       .  A
C348        H352   1.081       .  S
C353        C358   1.379       .  A
C353        C354   1.402       .  A
C353        O359   1.319       .  A
C354        C355   1.402       .  A
C354        H365   1.082       .  S
C355        C364   1.358       .  A
C355        C356   1.379       .  A
C356        C357   1.402       .  A
C356        O362   1.319       .  A
C357        C358   1.402       .  A
C357        H366   1.082       .  S
C358        C361   1.358       .  A
O359        C360   1.332       .  A
C360        C361   1.396       .  A
C361        H367   1.081       .  S
O362        C363   1.332       .  A
C363        C364   1.396       .  A
C364        H368   1.081       .  S
C369        C374   1.379       .  A
C369        C370   1.404       .  A
C369        O375   1.320       .  A
C370        C371   1.404       .  A
C370        H381   1.082       .  S
C371        C380   1.360       .  A
C371        C372   1.379       .  A
C372        C373   1.404       .  A
C372        O378   1.320       .  A
C373        C374   1.404       .  A
C373        H382   1.082       .  S
C374        C377   1.360       .  A
O375        C376   1.333       .  A
C376        C377   1.396       .  A
C377        H383   1.082       .  S
O378        C379   1.333       .  A
C379        C380   1.396       .  A
C380        H384   1.082       .  S
O385       Ni393   1.924       .  S
O385        C395   1.282       .  A
O386        C396   1.282       .  A
O387        C397   1.282       .  A
O388       Ni393   1.925       .  S
O388        C398   1.282       .  A
O389        C398   1.281       .  A
O390       Ni394   1.914   1_556  S
O390        C397   1.281       .  A
O391       Ni394   1.912   1_556  S
O391        C396   1.281       .  A
O392        C395   1.281       .  A
C395        C419   1.477       .  S
C396        C412   1.476       .  S
C397        C401   1.478       .  S
C398        C430   1.478       .  S
C399        C760   1.486       .  S
C399        C400   1.409       .  A
C399        C404   1.407       .  A
C400        C401   1.407       .  A
C400        H405   1.084       .  S
C401        C402   1.403       .  A
C402        C403   1.401       .  A
C402        H406   1.084       .  S
C403        C447   1.476       .  S
C403        C404   1.402       .  A
C404        H407   1.082       .  S
C408        C747   1.484       .  S
C408        C409   1.407       .  A
C408        C413   1.408       .  A
C409        C410   1.400       .  A
C409        H414   1.081       .  S
C410        C462   1.474       .  S
C410        C411   1.400       .  A
C411        C412   1.403       .  A
C411        H415   1.084       .  S
C412        C413   1.406       .  A
C413        H416   1.084       .  S
C417        C728   1.489       .  S
C417        C418   1.409       .  A
C417        C422   1.408       .  A
C418        C419   1.407       .  A
C418        H423   1.084       .  S
C419        C420   1.402       .  A
C420        C421   1.401       .  A
C420        H424   1.084       .  S
C421        C446   1.476       .  S
C421        C422   1.403       .  A
C422        H425   1.081       .  S
C426        C715   1.488       .  S
C426        C427   1.408       .  A
C426        C431   1.409       .  A
C427        C428   1.402       .  A
C427        H432   1.081       .  S
C428        C459   1.474       .  S
C428        C429   1.401       .  A
C429        C430   1.402       .  A
C429        H433   1.084       .  S
C430        C431   1.407       .  A
C431        H434   1.083       .  S
O435       Ni443   1.911       .  S
O435        C445   1.281       .  A
O436       Ni443   1.914       .  S
O436        C446   1.281       .  A
O437       Ni443   1.914       .  S
O437        C447   1.281       .  A
O438       Ni443   1.912       .  S
O438        C448   1.281       .  A
O439       Ni444   1.920       .  S
O439        C448   1.281       .  A
O440       Ni444   1.920       .  S
O440        C447   1.282       .  A
O441       Ni444   1.920       .  S
O441        C446   1.282       .  A
O442       Ni444   1.921       .  S
O442        C445   1.282       .  A
Ni443      Ni444   2.390       .  S
C445        C488   1.473   1_565  S
C448        C497   1.474   1_565  S
O449       Ni457   1.917       .  S
O449        C459   1.282       .  A
O450       Ni457   1.916       .  S
O450        C460   1.280       .  A
O451       Ni457   1.920       .  S
O451        C461   1.281       .  A
O452       Ni457   1.919       .  S
O452        C462   1.282       .  A
O453       Ni458   1.912       .  S
O453        C462   1.280       .  A
O454       Ni458   1.909       .  S
O454        C461   1.281       .  A
O455       Ni458   1.911       .  S
O455        C460   1.281       .  A
O456       Ni458   1.914       .  S
O456        C459   1.281       .  A
Ni457      Ni458   2.391       .  S
C460        C481   1.471   1_565  S
C461        C506   1.472   1_565  S
O463       Ni471   1.910   1_556  S
O463        C473   1.280       .  A
O464        C474   1.280       .  A
O465        C475   1.280       .  A
O466       Ni471   1.913   1_556  S
O466        C476   1.281       .  A
O467        C476   1.281       .  A
O468       Ni472   1.912       .  S
O468        C475   1.280       .  A
O469       Ni472   1.915       .  S
O469        C474   1.281       .  A
O470        C473   1.281       .  A
C473        C479   1.470       .  S
C474        C499   1.470       .  S
C475        C508   1.469       .  S
C476        C490   1.473       .  S
C477        C696   1.481       .  S
C477        C478   1.407       .  A
C477        C482   1.406       .  A
C478        C479   1.402       .  A
C478        H483   1.082       .  S
C479        C480   1.398       .  A
C480        C481   1.399       .  A
C480        H484   1.084       .  S
C481        C482   1.405       .  A
C482        H485   1.084       .  S
C486        C680   1.482       .  S
C486        C487   1.406       .  A
C486        C491   1.407       .  A
C487        C488   1.404       .  A
C487        H492   1.084       .  S
C488        C489   1.401       .  A
C489        C490   1.400       .  A
C489        H493   1.084       .  S
C490        C491   1.403       .  A
C491        H494   1.082       .  S
C495        C667   1.482       .  S
C495        C496   1.408       .  A
C495        C500   1.406       .  A
C496        C497   1.406       .  A
C496        H501   1.084       .  S
C497        C498   1.401       .  A
C498        C499   1.399       .  A
C498        H502   1.084       .  S
C499        C500   1.401       .  A
C500        H503   1.082       .  S
C504        C651   1.483       .  S
C504        C505   1.408       .  A
C504        C509   1.405       .  A
C505        C506   1.406       .  A
C505        H510   1.084       .  S
C506        C507   1.401       .  A
C507        C508   1.398       .  A
C507        H511   1.084       .  S
C508        C509   1.400       .  A
C509        H512   1.081       .  S
O513       Ni521   1.913   1_655  S
O513        C523   1.281       .  A
O514       Ni521   1.912       .  S
O514        C524   1.281       .  A
O515       Ni521   1.914   1_655  S
O515        C525   1.281       .  A
O516       Ni521   1.915       .  S
O516        C526   1.281       .  A
O517       Ni522   1.925   1_455  S
O517        C526   1.282       .  A
O518       Ni522   1.925       .  S
O518        C525   1.282       .  A
O519       Ni522   1.925   1_455  S
O519        C524   1.282       .  A
O520       Ni522   1.924       .  S
O520        C523   1.282       .  A
Ni521      Ni522   2.389   1_455  S
C523        C627   1.477       .  S
C524        C557   1.476       .  S
C525        C616   1.478       .  S
C526        C584   1.478       .  S
O527       Ni535   1.915       .  S
O527        C537   1.281       .  A
O528       Ni535   1.914   1_655  S
O528        C538   1.281       .  A
O529       Ni535   1.911       .  S
O529        C539   1.280       .  A
O530       Ni535   1.916   1_655  S
O530        C540   1.281       .  A
O531       Ni536   1.913   1_655  S
O531        C540   1.281       .  A
O532       Ni536   1.911       .  S
O532        C539   1.280       .  A
O533       Ni536   1.909   1_655  S
O533        C538   1.280       .  A
O534       Ni536   1.910       .  S
O534        C537   1.280       .  A
Ni535      Ni536   2.392       .  S
C537        C568   1.469       .  S
C538        C636   1.470       .  S
C539        C575   1.469       .  S
C540        C609   1.473       .  S
O541       Ni549   1.919       .  S
O541        C551   1.282       .  A
O542        C552   1.281       .  A
O543       Ni549   1.916       .  S
O543        C553   1.280       .  A
O544        C554   1.282       .  A
O545        C554   1.281       .  A
O546       Ni550   1.911       .  S
O546        C553   1.281       .  A
O547        C552   1.281       .  A
O548       Ni550   1.912       .  S
O548        C551   1.280       .  A
Ni549      Ni550   2.390       .  S
C551        C559   1.474       .  S
C552        C577   1.472       .  S
C553        C566   1.471       .  S
C554        C586   1.474       .  S
C555        C744   1.484       .  S
C555        C556   1.408       .  A
C555        C560   1.407       .  A
C556        C557   1.406       .  A
C556        H561   1.084       .  S
C557        C558   1.403       .  A
C558        C559   1.401       .  A
C558        H562   1.084       .  S
C559        C560   1.400       .  A
C560        H563   1.081       .  S
C564        C699   1.481       .  S
C564        C565   1.406       .  A
C564        C569   1.406       .  A
C565        C566   1.405       .  A
C565        H570   1.084       .  S
C566        C567   1.399       .  A
C567        C568   1.398       .  A
C567        H571   1.084       .  S
C568        C569   1.402       .  A
C569        H572   1.082       .  S
C573        C648   1.483       .  S
C573        C574   1.405       .  A
C573        C578   1.408       .  A
C574        C575   1.400       .  A
C574        H579   1.081       .  S
C575        C576   1.398       .  A
C576        C577   1.401       .  A
C576        H580   1.084       .  S
C577        C578   1.406       .  A
C578        H581   1.084       .  S
C582        C712   1.488       .  S
C582        C583   1.409       .  A
C582        C587   1.408       .  A
C583        C584   1.407       .  A
C583        H588   1.083       .  S
C584        C585   1.402       .  A
C585        C586   1.401       .  A
C585        H589   1.084       .  S
C586        C587   1.402       .  A
C587        H590   1.081       .  S
O591       Ni599   1.920       .  S
O591        C601   1.282       .  A
O592        C602   1.282       .  A
O593       Ni599   1.920       .  S
O593        C603   1.282       .  A
O594        C604   1.281       .  A
O595       Ni600   1.911       .  S
O595        C604   1.281       .  A
O596        C603   1.281       .  A
O597       Ni600   1.914       .  S
O597        C602   1.281       .  A
O598        C601   1.281       .  A
C601        C607   1.473       .  S
C602        C625   1.476       .  S
C603        C618   1.476       .  S
C604        C634   1.474       .  S
C605        C683   1.482       .  S
C605        C606   1.406       .  A
C605        C610   1.407       .  A
C606        C607   1.404       .  A
C606        H611   1.084       .  S
C607        C608   1.401       .  A
C608        C609   1.400       .  A
C608        H612   1.084       .  S
C609        C610   1.403       .  A
C610        H613   1.082       .  S
C614        C763   1.486       .  S
C614        C615   1.408       .  A
C614        C619   1.407       .  A
C615        C616   1.408       .  A
C615        H620   1.084       .  S
C616        C617   1.403       .  A
C617        C618   1.401       .  A
C617        H621   1.084       .  S
C618        C619   1.402       .  A
C619        H622   1.082       .  S
C623        C731   1.489       .  S
C623        C624   1.408       .  A
C623        C628   1.409       .  A
C624        C625   1.403       .  A
C624        H629   1.081       .  S
C625        C626   1.401       .  A
C626        C627   1.402       .  A
C626        H630   1.084       .  S
C627        C628   1.407       .  A
C628        H631   1.084       .  S
C632        C664   1.482       .  S
C632        C633   1.408       .  A
C632        C637   1.406       .  A
C633        C634   1.406       .  A
C633        H638   1.084       .  S
C634        C635   1.401       .  A
C635        C636   1.399       .  A
C635        H639   1.084       .  S
C636        C637   1.400       .  A
C637        H640   1.082       .  S
C641        C646   1.379       .  A
C641        C642   1.401       .  A
C641        O647   1.318       .  A
C642        C643   1.402       .  A
C642        H653   1.083       .  S
C643        C652   1.357       .  A
C643        C644   1.379       .  A
C644        C645   1.401       .  A
C644        O650   1.318       .  A
C645        C646   1.402       .  A
C645        H654   1.083       .  S
C646        C649   1.357       .  A
O647        C648   1.331       .  A
C648        C649   1.396       .  A
C649        H655   1.081       .  S
O650        C651   1.332       .  A
C651        C652   1.396       .  A
C652        H656   1.081       .  S
C657        C662   1.379       .  A
C657        C658   1.402       .  A
C657        O663   1.318       .  A
C658        C659   1.402       .  A
C658        H669   1.083       .  S
C659        C668   1.359       .  A
C659        C660   1.380       .  A
C660        C661   1.402       .  A
C660        O666   1.318       .  A
C661        C662   1.402       .  A
C661        H670   1.083       .  S
C662        C665   1.358       .  A
O663        C664   1.332       .  A
C664        C665   1.395       .  A
C665        H671   1.082       .  S
O666        C667   1.332       .  A
C667        C668   1.396       .  A
C668        H672   1.082       .  S
C673        C678   1.380       .  A
C673        C674   1.403       .  A
C673        O679   1.318       .  A
C674        C675   1.402       .  A
C674        H685   1.083       .  S
C675        C684   1.360       .  A
C675        C676   1.380       .  A
C676        C677   1.403       .  A
C676        O682   1.318       .  A
C677        C678   1.402       .  A
C677        H686   1.083       .  S
C678        C681   1.360       .  A
O679        C680   1.332       .  A
C680        C681   1.395       .  A
C681        H687   1.082       .  S
O682        C683   1.332       .  A
C683        C684   1.395       .  A
C684        H688   1.082       .  S
C689        C694   1.380       .  A
C689        C690   1.403       .  A
C689        O695   1.318       .  A
C690        C691   1.402       .  A
C690        H701   1.083       .  S
C691        C700   1.360       .  A
C691        C692   1.380       .  A
C692        C693   1.402       .  A
C692        O698   1.318       .  A
C693        C694   1.402       .  A
C693        H702   1.083       .  S
C694        C697   1.360       .  A
O695        C696   1.332       .  A
C696        C697   1.395       .  A
C697        H703   1.082       .  S
O698        C699   1.332       .  A
C699        C700   1.395       .  A
C700        H704   1.082       .  S
C705        C710   1.378       .  A
C705        C706   1.403       .  A
C705        O711   1.320       .  A
C706        C707   1.404       .  A
C706        H717   1.082       .  S
C707        C716   1.360       .  A
C707        C708   1.378       .  A
C708        C709   1.403       .  A
C708        O714   1.319       .  A
C709        C710   1.404       .  A
C709        H718   1.082       .  S
C710        C713   1.360       .  A
O711        C712   1.333       .  A
C712        C713   1.397       .  A
C713        H719   1.081       .  S
O714        C715   1.333       .  A
C715        C716   1.398       .  A
C716        H720   1.081       .  S
C721        C726   1.378       .  A
C721        C722   1.404       .  A
C721        O727   1.320       .  A
C722        C723   1.404       .  A
C722        H733   1.082       .  S
C723        C732   1.360       .  A
C723        C724   1.378       .  A
C724        C725   1.404       .  A
C724        O730   1.320       .  A
C725        C726   1.404       .  A
C725        H734   1.082       .  S
C726        C729   1.360       .  A
O727        C728   1.333       .  A
C728        C729   1.397       .  A
C729        H735   1.081       .  S
O730        C731   1.333       .  A
C731        C732   1.397       .  A
C732        H736   1.081       .  S
C737        C742   1.379       .  A
C737        C738   1.402       .  A
C737        O743   1.319       .  A
C738        C739   1.402       .  A
C738        H749   1.082       .  S
C739        C748   1.358       .  A
C739        C740   1.379       .  A
C740        C741   1.402       .  A
C740        O746   1.319       .  A
C741        C742   1.402       .  A
C741        H750   1.082       .  S
C742        C745   1.358       .  A
O743        C744   1.332       .  A
C744        C745   1.396       .  A
C745        H751   1.081       .  S
O746        C747   1.332       .  A
C747        C748   1.396       .  A
C748        H752   1.081       .  S
C753        C758   1.379       .  A
C753        C754   1.404       .  A
C753        O759   1.320       .  A
C754        C755   1.404       .  A
C754        H765   1.082       .  S
C755        C764   1.360       .  A
C755        C756   1.379       .  A
C756        C757   1.404       .  A
C756        O762   1.320       .  A
C757        C758   1.404       .  A
C757        H766   1.082       .  S
C758        C761   1.360       .  A
O759        C760   1.333       .  A
C760        C761   1.396       .  A
C761        H767   1.082       .  S
O762        C763   1.333       .  A
C763        C764   1.396       .  A
C764        H768   1.082       .  S
