geometry optimzed in LAMMPS
_audit_creation_date              2020-11-30 
_audit_creation_method            'lammps2cif' 
_symmetry_space_group_name_H-M    'P1' 
_symmetry_Int_Tables_number       1 
_symmetry_cell_setting            triclinic 
loop_ 
_symmetry_equiv_pos_as_xyz 
  x,y,z 
_cell_length_a                    49.90789165 
_cell_length_b                    50.09646765577745 
_cell_length_c                    47.896601587766355 
_cell_angle_alpha                 89.99972801468559 
_cell_angle_beta                  90.01560795157854 
_cell_angle_gamma                 89.92142738631517 
loop_ 
_atom_site_label 
_atom_site_type_symbol 
_atom_site_fract_x 
_atom_site_fract_y 
_atom_site_fract_z 
_atom_site_charge 
O1          O  0.47253043  0.27062217  0.02069372    -0.74700
O2          O  0.52557141  0.28420304  0.07664841    -0.74700
O3          O  0.47135266  0.28470351  0.07553050    -0.74700
O4          O  0.52675269  0.27034306  0.02202248    -0.74800
O5          O  0.52714351  0.31337622  0.01024331    -0.74700
O6          O  0.47176693  0.32762098  0.06332016    -0.74700
O7          O  0.52580154  0.32726322  0.06492314    -0.74700
O8          O  0.47305802  0.31360711  0.00873615    -0.74700
Ni9        Ni  0.49900730  0.27592605  0.04914632     1.25400
Ni10       Ni  0.49945986  0.32197593  0.03636951     1.25400
C11         C  0.46417324  0.28984073  0.00532074     0.87500
C12         C  0.53431539  0.30799928  0.08014761     0.87500
C13         C  0.46260220  0.30863176  0.07844409     0.87500
C14         C  0.53605441  0.28955221  0.00725272     0.87700
O15         O  0.20200785  0.58047571  0.03358234    -0.74700
O16         O  0.19913086  0.61687986  0.96311106    -0.74700
O17         O  0.20190339  0.56513901  0.97921888    -0.74700
O18         O  0.19907671  0.63230308  0.01740491    -0.74800
O19         O  0.24365372  0.63450261  0.01637685    -0.74700
O20         O  0.24651658  0.56696918  0.97908548    -0.74700
O21         O  0.24374660  0.61841898  0.96238844    -0.74700
O22         O  0.24657353  0.58306293  0.03303465    -0.74700
Ni23       Ni  0.19892535  0.59861803  0.99836718     1.25400
Ni24       Ni  0.24668272  0.60082438  0.99769348     1.25400
C25         C  0.22480685  0.57586465  0.04499665     0.87500
C26         C  0.22106439  0.62349017  0.95102940     0.87500
C27         C  0.22466566  0.55498131  0.97279715     0.87500
C28         C  0.22093264  0.64450019  0.02322684     0.87700
O29         O  0.52574296  0.90943934  0.92435313    -0.74700
O30         O  0.47105473  0.92232145  0.97905370    -0.74700
O31         O  0.52537943  0.92200612  0.97961273    -0.74700
O32         O  0.47154048  0.90984374  0.92397511    -0.74800
O33         O  0.47109317  0.86661829  0.93495304    -0.74700
O34         O  0.52529020  0.87861493  0.98988494    -0.74700
O35         O  0.47113646  0.87905773  0.98986247    -0.74700
O36         O  0.52512971  0.86613731  0.93496632    -0.74700
Ni37       Ni  0.49846346  0.91747280  0.95137840     1.25400
Ni38       Ni  0.49816062  0.87110324  0.96281490     1.25400
C39         C  0.53421753  0.88555548  0.92040145     0.87500
C40         C  0.46206398  0.90273650  0.99349656     0.87500
C41         C  0.53422295  0.90225899  0.99394367     0.87500
C42         C  0.46246897  0.88618553  0.92025194     0.87700
O43         O  0.75444979  0.60961599  0.96800746    -0.74700
O44         O  0.75647210  0.57404463  0.03849673    -0.74700
O45         O  0.75537816  0.62541929  0.02199470    -0.74700
O46         O  0.75558642  0.55806422  0.98451254    -0.74800
O47         O  0.80021279  0.55868896  0.98318488    -0.74700
O48         O  0.80002483  0.62599517  0.02123622    -0.74700
O49         O  0.80111855  0.57423433  0.03751510    -0.74700
O50         O  0.79908709  0.61052906  0.96709039    -0.74700
Ni51       Ni  0.75391023  0.59174304  0.00327085     1.25400
Ni52       Ni  0.80172377  0.59235766  0.00221186     1.25400
C53         C  0.77639996  0.61609490  0.95595250     0.87500
C54         C  0.77905265  0.56845086  0.04979005     0.87500
C55         C  0.77763403  0.63677405  0.02797020     0.87500
C56         C  0.77788580  0.54729446  0.97749148     0.87700
O57         O  0.25573999  0.06475609  0.51726771    -0.74700
O58         O  0.25439558  0.13274746  0.48090056    -0.74700
O59         O  0.25523407  0.08143170  0.46352101    -0.74700
O60         O  0.25485235  0.11588462  0.53469845    -0.74800
O61         O  0.29949304  0.11698083  0.53455230    -0.74700
O62         O  0.29987878  0.08192643  0.46341032    -0.74700
O63         O  0.29903384  0.13342637  0.48052288    -0.74700
O64         O  0.30038036  0.06554694  0.51743605    -0.74700
Ni65       Ni  0.25348884  0.09870320  0.49908785     1.25400
Ni66       Ni  0.30130073  0.09951149  0.49896153     1.25400
C67         C  0.27824674  0.05403033  0.52363953     0.87500
C68         C  0.27647451  0.14423199  0.47445853     0.87500
C69         C  0.27758599  0.07588641  0.45171665     0.87500
C70         C  0.27705591  0.12192138  0.54651671     0.87700
O71         O  0.02584903  0.82628592  0.43678780    -0.74700
O72         O  0.97331037  0.81307265  0.49312972    -0.74700
O73         O  0.02739175  0.81253119  0.49134292    -0.74700
O74         O  0.97167855  0.82677836  0.43858077    -0.74800
O75         O  0.97126652  0.78382427  0.42646732    -0.74700
O76         O  0.02661423  0.76943548  0.47984706    -0.74700
O77         O  0.97236972  0.77005911  0.48133072    -0.74700
O78         O  0.02555303  0.78321844  0.42515828    -0.74700
Ni79       Ni  0.99958122  0.82117639  0.46536560     1.25400
Ni80       Ni  0.99890499  0.77508817  0.45276580     1.25400
C81         C  0.03448697  0.80697696  0.42172356     0.87500
C82         C  0.96419158  0.78942181  0.49664352     0.87500
C83         C  0.03614375  0.78865413  0.49442387     0.87500
C84         C  0.96233967  0.80768494  0.42370564     0.87700
O85         O  0.70328352  0.12721525  0.48296427    -0.74700
O86         O  0.70434432  0.05930547  0.51949073    -0.74700
O87         O  0.70405845  0.11067496  0.53678670    -0.74700
O88         O  0.70372879  0.07573088  0.46554246    -0.74800
O89         O  0.74836781  0.07638091  0.46499070    -0.74700
O90         O  0.74870361  0.11081357  0.53624721    -0.74700
O91         O  0.74899170  0.05954490  0.51870483    -0.74700
O92         O  0.74792948  0.12769619  0.48252006    -0.74700
Ni93       Ni  0.70226072  0.09321397  0.50118406     1.25400
Ni94       Ni  0.75007618  0.09362525  0.50058961     1.25400
C95         C  0.72540511  0.13870434  0.47672686     0.87500
C96         C  0.72683821  0.04828945  0.52532445     0.87500
C97         C  0.72649940  0.11640790  0.54833963     0.87500
C98         C  0.72602266  0.07029531  0.45349172     0.87700
O99         O  0.97231050  0.37425760  0.51165274    -0.74700
O100        O  0.02674967  0.36292552  0.56660344    -0.74700
O101        O  0.97276217  0.36198221  0.56666556    -0.74700
O102        O  0.02649713  0.37513997  0.51147291    -0.74800
O103        O  0.02555042  0.41853074  0.52166559    -0.74700
O104        O  0.97201778  0.40528278  0.57732200    -0.74700
O105        O  0.02622519  0.40633369  0.57682187    -0.74700
O106        O  0.97134632  0.41756047  0.52226799    -0.74700
Ni107      Ni  0.99961284  0.36704810  0.53870355     1.25400
Ni108      Ni  0.99876405  0.41347463  0.54989483     1.25400
C109        C  0.96282502  0.39776652  0.50787114     0.87500
C110        C  0.03536298  0.38274274  0.58091352     0.87500
C111        C  0.96363002  0.38140024  0.58124152     0.87500
C112        C  0.03484275  0.39899455  0.50732771     0.87700
O113        O  0.25726065  0.42992845  0.27620478    -0.74700
O114        O  0.27028237  0.37093685  0.32559375    -0.74700
O115        O  0.29192683  0.38835909  0.27683963    -0.74700
O116        O  0.23555274  0.41241162  0.32525419    -0.74800
O117        O  0.20627789  0.38788908  0.30129623    -0.74700
O118        O  0.26247740  0.36382393  0.25313487    -0.74700
O119        O  0.24084578  0.34653239  0.30171664    -0.74700
O120        O  0.22785435  0.40522581  0.25262289    -0.74700
Ni121      Ni  0.26478976  0.40134215  0.30182675     1.25400
Ni122      Ni  0.23332897  0.37504413  0.27635906     1.25400
C123        C  0.24073003  0.42709575  0.25591295     0.87500
C124        C  0.25752180  0.34902110  0.32187714     0.87500
C125        C  0.28646850  0.37216762  0.25690454     0.87500
C126        C  0.21168178  0.40362186  0.32161417     0.87700
O127        O  0.70599490  0.38216936  0.27857485    -0.74700
O128        O  0.76293842  0.40535279  0.32632745    -0.74700
O129        O  0.74210746  0.42249414  0.27708300    -0.74700
O130        O  0.72695606  0.36507163  0.32772361    -0.74800
O131        O  0.75557432  0.33915213  0.30443920    -0.74700
O132        O  0.77070426  0.39625089  0.25416790    -0.74700
O133        O  0.79150694  0.37927406  0.30315913    -0.74700
O134        O  0.73465344  0.35613019  0.25548855    -0.74700
Ni135      Ni  0.73346657  0.39473708  0.30324253     1.25400
Ni136      Ni  0.76410316  0.36680105  0.27849171     1.25400
C137        C  0.71093929  0.36532549  0.25910094     0.87500
C138        C  0.78656228  0.39586848  0.32284897     0.87500
C139        C  0.75887784  0.41876142  0.25717253     0.87500
C140        C  0.73897865  0.34264427  0.32450021     0.87700
O141        O  0.74193769  0.34575853  0.80526628    -0.74700
O142        O  0.72914199  0.28810049  0.75479725    -0.74700
O143        O  0.70773642  0.30425346  0.80394299    -0.74700
O144        O  0.76340629  0.32971359  0.75617452    -0.74800
O145        O  0.79313609  0.30472226  0.77907725    -0.74700
O146        O  0.73733156  0.27931642  0.82709501    -0.74700
O147        O  0.75881172  0.26302682  0.77767953    -0.74700
O148        O  0.77170878  0.32095025  0.82832301    -0.74700
Ni149      Ni  0.73451182  0.31780465  0.77922528     1.25400
Ni150      Ni  0.76630445  0.29107392  0.80386296     1.25400
C151        C  0.75875810  0.34287624  0.82524888     0.87500
C152        C  0.74204459  0.26614836  0.75765029     0.87500
C153        C  0.71338009  0.28802335  0.82375892     0.87500
C154        C  0.78744674  0.32135544  0.75961821     0.87700
O155        O  0.73444530  0.90477358  0.17573768    -0.74700
O156        O  0.79003352  0.88113681  0.22515375    -0.74700
O157        O  0.76962913  0.86363662  0.17586191    -0.74700
O158        O  0.75488520  0.92221858  0.22507784    -0.74800
O159        O  0.72542298  0.89707500  0.24805180    -0.74700
O160        O  0.74009236  0.83872100  0.19900378    -0.74700
O161        O  0.76049192  0.85606878  0.24810919    -0.74700
O162        O  0.70499883  0.87975015  0.19887467    -0.74700
Ni163      Ni  0.76329837  0.89384884  0.19961833     1.25400
Ni164      Ni  0.73169992  0.86703703  0.22430256     1.25400
C165        C  0.71056554  0.89591988  0.17898446     0.87500
C166        C  0.78438638  0.86488353  0.24496448     0.87500
C167        C  0.75716693  0.84151318  0.17926158     0.87500
C168        C  0.73799424  0.91915451  0.24498019     0.87700
O169        O  0.77269215  0.79165209  0.75247078    -0.74700
O170        O  0.76062598  0.84923087  0.70182367    -0.74700
O171        O  0.73794618  0.83296016  0.75024433    -0.74700
O172        O  0.79521424  0.80787826  0.70384347    -0.74800
O173        O  0.76633440  0.78276689  0.68002778    -0.74700
O174        O  0.70913662  0.80779403  0.72639922    -0.74700
O175        O  0.73174688  0.82424432  0.67785799    -0.74700
O176        O  0.74384857  0.76637284  0.72879919    -0.74700
Ni177      Ni  0.76764652  0.82128813  0.72794918     1.25400
Ni178      Ni  0.73674580  0.79436772  0.70242939     1.25400
C179        C  0.76007599  0.76962686  0.74927576     0.87500
C180        C  0.74437615  0.84626607  0.68137195     0.87500
C181        C  0.71407060  0.82444623  0.74603471     0.87500
C182        C  0.79013947  0.79155675  0.68392145     0.87700
O183        O  0.29139536  0.88368741  0.19814813    -0.74700
O184        O  0.23664793  0.85948124  0.24795764    -0.74700
O185        O  0.25599571  0.84298247  0.19801822    -0.74700
O186        O  0.27209815  0.90016201  0.24811148    -0.74800
O187        O  0.24241222  0.92606121  0.22628889    -0.74700
O188        O  0.22614340  0.86861585  0.17610014    -0.74700
O189        O  0.20685259  0.88527863  0.22616434    -0.74700
O190        O  0.26162233  0.90932868  0.17610486    -0.74700
Ni191      Ni  0.26508459  0.87068825  0.22382961     1.25400
Ni192      Ni  0.23319598  0.89827370  0.20039987     1.25400
C193        C  0.28549014  0.90016938  0.17862783     0.87500
C194        C  0.21271200  0.86843144  0.24537211     0.87500
C195        C  0.23857522  0.84633622  0.17867316     0.87500
C196        C  0.25977744  0.92248439  0.24567760     0.87700
O197        O  0.26189275  0.83664213  0.74447402    -0.74700
O198        O  0.20687592  0.81106835  0.69572349    -0.74700
O199        O  0.22702806  0.79536454  0.74540026    -0.74700
O200        O  0.24149582  0.85243094  0.69494155    -0.74800
O201        O  0.27145604  0.82723172  0.67265234    -0.74700
O202        O  0.25677549  0.76964313  0.72345602    -0.74700
O203        O  0.23675096  0.78565600  0.67356033    -0.74700
O204        O  0.29170562  0.81101833  0.72247396    -0.74700
Ni205      Ni  0.23327779  0.82475142  0.72091092     1.25400
Ni206      Ni  0.26526096  0.79746838  0.69723906     1.25400
C207        C  0.28590190  0.82798502  0.74155935     0.87500
C208        C  0.21274070  0.79426500  0.67648805     0.87500
C209        C  0.23940941  0.77309996  0.74287517     0.87500
C210        C  0.25878280  0.84937752  0.67546257     0.87700
O211        O  0.29542550  0.30975033  0.80018865    -0.74700
O212        O  0.23919776  0.33588227  0.75317962    -0.74700
O213        O  0.26160508  0.35176413  0.80185293    -0.74700
O214        O  0.27313378  0.29392782  0.75140117    -0.74800
O215        O  0.24372698  0.26912633  0.77485948    -0.74700
O216        O  0.23189566  0.32742104  0.82541691    -0.74700
O217        O  0.20972573  0.31106509  0.77654946    -0.74700
O218        O  0.26586736  0.28529828  0.82384145    -0.74700
Ni219      Ni  0.26838721  0.32368073  0.77583128     1.25400
Ni220      Ni  0.23674854  0.29733709  0.80102021     1.25400
C221        C  0.28989604  0.29347915  0.82000809     0.87500
C222        C  0.21519658  0.32757685  0.75694435     0.87500
C223        C  0.24497623  0.34920334  0.82202491     0.87500
C224        C  0.26019810  0.27208048  0.75455299     0.87700
C225        C  0.05597315  0.37828045  0.60255672    -0.03600
C226        C  0.06946519  0.39998806  0.61475725    -0.09300
C227        C  0.08899081  0.39568484  0.63519758    -0.17000
C228        C  0.09510742  0.36968951  0.64377895     0.25100
C229        C  0.08163162  0.34799886  0.63193529    -0.18700
C230        C  0.06222307  0.35223302  0.61139662    -0.07600
C231        C  0.11545190  0.36510706  0.66444293    -0.14000
C232        C  0.13259507  0.36015892  0.68135922    -0.13800
C233        C  0.15301233  0.35283204  0.70106296     0.25000
C234        C  0.17785815  0.36573180  0.70075866    -0.19200
C235        C  0.19807377  0.35773868  0.71916824    -0.07600
C236        C  0.19358781  0.33678941  0.73815899    -0.03700
C237        C  0.16841835  0.32418823  0.73851555    -0.09000
C238        C  0.14830303  0.33212976  0.72001549    -0.16700
H239        H  0.06509769  0.42026384  0.60835085     0.11500
H240        H  0.09935844  0.41259780  0.64422944     0.10800
H241        H  0.08620814  0.32779851  0.63849706     0.10700
H242        H  0.05203205  0.33513715  0.60255246     0.11200
H243        H  0.18169710  0.38175216  0.68610619     0.11300
H244        H  0.21722489  0.36785220  0.71843608     0.11300
H245        H  0.16439675  0.30790136  0.75276801     0.11400
H246        H  0.12916636  0.32193793  0.72030109     0.10200
C247        C  0.19024167  0.41063235  0.34173547    -0.03600
C248        C  0.16373386  0.40224469  0.33694719    -0.09300
C249        C  0.14402968  0.40597052  0.35729419    -0.17000
C250        C  0.15046833  0.41813296  0.38270677     0.25100
C251        C  0.17655221  0.42740711  0.38732785    -0.18700
C252        C  0.19632553  0.42376759  0.36693344    -0.07600
C253        C  0.13075348  0.41916779  0.40463197    -0.14000
C254        C  0.11409195  0.41758935  0.42279426    -0.13800
C255        C  0.09423478  0.41319142  0.44410853     0.25000
C256        C  0.08650351  0.38709698  0.45067381    -0.19200
C257        C  0.06721728  0.38248925  0.47124780    -0.07600
C258        C  0.05539125  0.40396927  0.48563513    -0.03700
C259        C  0.06330119  0.43016280  0.47892405    -0.09000
C260        C  0.08258874  0.43472517  0.45825576    -0.16700
H261        H  0.15835221  0.39210531  0.31778834     0.11500
H262        H  0.12393329  0.39864270  0.35351634     0.10800
H263        H  0.18179227  0.43674912  0.40698087     0.10700
H264        H  0.21654722  0.43036795  0.37131215     0.11200
H265        H  0.09538474  0.37027411  0.43985406     0.11300
H266        H  0.06161580  0.36209401  0.47589811     0.11300
H267        H  0.05452500  0.44713146  0.48954994     0.11400
H268        H  0.08839428  0.45501118  0.45331518     0.10200
C269        C  0.94197703  0.40211001  0.48641494    -0.03600
C270        C  0.93131523  0.42775374  0.48169857    -0.09300
C271        C  0.91216704  0.43186091  0.46080932    -0.17000
C272        C  0.90349469  0.41041064  0.44445854     0.25100
C273        C  0.91375058  0.38482024  0.44921988    -0.18700
C274        C  0.93285110  0.38066051  0.47005263    -0.07600
C275        C  0.88411971  0.41434532  0.42268187    -0.14000
C276        C  0.86783906  0.41522057  0.40416495    -0.13800
C277        C  0.84823758  0.41309893  0.38234310     0.25000
C278        C  0.85432222  0.39873186  0.35811661    -0.19200
C279        C  0.83445863  0.39391485  0.33821831    -0.07600
C280        C  0.80821511  0.40340364  0.34236567    -0.03700
C281        C  0.80254477  0.41867561  0.36631023    -0.09000
C282        C  0.82245028  0.42341088  0.38622347    -0.16700
H283        H  0.93788761  0.44466247  0.49399372     0.11500
H284        H  0.90425446  0.45173331  0.45732554     0.10800
H285        H  0.90707422  0.36807550  0.43670814     0.10700
H286        H  0.94060054  0.36068298  0.47317903     0.11200
H287        H  0.87421702  0.39056697  0.35499957     0.11300
H288        H  0.83948702  0.38215675  0.31998229     0.11300
H289        H  0.78253566  0.42622365  0.37012271     0.11400
H290        H  0.81752544  0.43442953  0.40500235     0.10200
C291        C  0.94329909  0.37605340  0.60297117    -0.03600
C292        C  0.93629745  0.34963526  0.60973679    -0.09300
C293        C  0.91730238  0.34448951  0.63043527    -0.17000
C294        C  0.90501454  0.36563092  0.64458050     0.25100
C295        C  0.91177048  0.39198517  0.63799413    -0.18700
C296        C  0.93084730  0.39719559  0.61733689    -0.07600
C297        C  0.88536101  0.36014922  0.66570131    -0.14000
C298        C  0.86876221  0.35468290  0.68300292    -0.13800
C299        C  0.84869736  0.34720161  0.70299837     0.25000
C300        C  0.82279805  0.35770006  0.70093096    -0.19200
C301        C  0.80293897  0.34956437  0.71961187    -0.07600
C302        C  0.80876818  0.33077958  0.74060905    -0.03700
C303        C  0.83498216  0.32061470  0.74275002    -0.09000
C304        C  0.85480398  0.32876910  0.72400901    -0.16700
H305        H  0.94558182  0.33291601  0.59914581     0.11500
H306        H  0.91219022  0.32401596  0.63539746     0.10800
H307        H  0.90230559  0.40848533  0.64881164     0.10700
H308        H  0.93578012  0.41773959  0.61257658     0.11200
H309        H  0.81787650  0.37194480  0.68469104     0.11300
H310        H  0.78297251  0.35779135  0.71741930     0.11300
H311        H  0.84010151  0.30611448  0.75865167     0.11400
H312        H  0.87480349  0.32047966  0.72571284     0.10200
C313        C  0.72690326  0.12975641  0.57591470    -0.03600
C314        C  0.75142467  0.13500792  0.58933881    -0.09300
C315        C  0.75197178  0.14834071  0.61494683    -0.17000
C316        C  0.72806766  0.15658953  0.62752025     0.25100
C317        C  0.70353168  0.15112362  0.61457086    -0.18700
C318        C  0.70292121  0.13773370  0.58894465    -0.07600
C319        C  0.72890419  0.17190962  0.65290463    -0.14000
C320        C  0.73017725  0.18623766  0.67307311    -0.13800
C321        C  0.73204592  0.20518989  0.69554740     0.25000
C322        C  0.71532651  0.22760946  0.69562571    -0.19200
C323        C  0.71820386  0.24712749  0.71621610    -0.07600
C324        C  0.73789061  0.24449078  0.73707671    -0.03700
C325        C  0.75426181  0.22158976  0.73719811    -0.09000
C326        C  0.75138252  0.20209055  0.71648650    -0.16700
H327        H  0.77023788  0.12906022  0.57993973     0.11500
H328        H  0.77107645  0.15256844  0.62473735     0.10800
H329        H  0.68490926  0.15754785  0.62407272     0.10700
H330        H  0.68372419  0.13396974  0.57917776     0.11200
H331        H  0.70036785  0.23025366  0.67945545     0.11300
H332        H  0.70526218  0.26448318  0.71552327     0.11300
H333        H  0.76966402  0.21902124  0.75289970     0.11400
H334        H  0.76453103  0.18486240  0.71652260     0.10200
C335        C  0.73411362  0.32048544  0.34427919    -0.03600
C336        C  0.71659184  0.32356994  0.36708588    -0.09300
C337        C  0.71295893  0.30269912  0.38616121    -0.17000
C338        C  0.72677853  0.27859404  0.38260786     0.25100
C339        C  0.74398778  0.27530602  0.35984885    -0.18700
C340        C  0.74764012  0.29605042  0.34081892    -0.07600
C341        C  0.72381224  0.25712007  0.40226098    -0.14000
C342        C  0.72305364  0.23789066  0.41733752    -0.13800
C343        C  0.72368841  0.21377109  0.43358189     0.25000
C344        C  0.74810962  0.20074820  0.43823335    -0.19200
C345        C  0.74874774  0.17649388  0.45262510    -0.07600
C346        C  0.72489258  0.16488778  0.46244399    -0.03700
C347        C  0.70047062  0.17832390  0.45799003    -0.09000
C348        C  0.69989907  0.20262063  0.44364392    -0.16700
H349        H  0.70590193  0.34213760  0.37032151     0.11500
H350        H  0.69956151  0.30541977  0.40372743     0.10800
H351        H  0.75476130  0.25671986  0.35690567     0.10700
H352        H  0.76126603  0.29298473  0.32352112     0.11200
H353        H  0.76663102  0.20916563  0.43039937     0.11300
H354        H  0.76785792  0.16665565  0.45567713     0.11300
H355        H  0.68177030  0.16996435  0.46536907     0.11400
H356        H  0.68088417  0.21250870  0.44007315     0.10200
C357        C  0.72606207  0.05663568  0.42607401    -0.03600
C358        C  0.70198582  0.04756143  0.41411524    -0.09300
C359        C  0.70221192  0.03385220  0.38868449    -0.17000
C360        C  0.72644414  0.02914591  0.37482877     0.25100
C361        C  0.75045367  0.03841748  0.38634691    -0.18700
C362        C  0.75029325  0.05207720  0.41179341    -0.07600
C363        C  0.72682193  0.01368120  0.34952891    -0.14000
C364        C  0.72738358  0.99931459  0.32935627    -0.13800
C365        C  0.72843741  0.98034881  0.30684171     0.25000
C366        C  0.74534398  0.98462552  0.28396606    -0.19200
C367        C  0.74787450  0.96506942  0.26327146    -0.07600
C368        C  0.73354511  0.94096756  0.26530291    -0.03700
C369        C  0.71603744  0.93723060  0.28799031    -0.09000
C370        C  0.71355718  0.95677678  0.30861261    -0.16700
H371        H  0.68301490  0.05071347  0.42458059     0.11500
H372        H  0.68352700  0.02662025  0.38001635     0.10800
H373        H  0.76933870  0.03477781  0.37584942     0.10700
H374        H  0.76916963  0.05884993  0.42038338     0.11200
H375        H  0.75700264  0.00279509  0.28243831     0.11300
H376        H  0.76151240  0.96855395  0.24607963     0.11300
H377        H  0.70472458  0.91892248  0.29020630     0.11400
H378        H  0.70046847  0.95323990  0.32627234     0.10200
C379        C  0.72724685  0.02251814  0.54037513    -0.03600
C380        C  0.75151896  0.00876581  0.54450276    -0.09300
C381        C  0.75209696  0.98512078  0.55995792    -0.17000
C382        C  0.72847628  0.97494784  0.57150134     0.25100
C383        C  0.70416579  0.98825278  0.56717787    -0.18700
C384        C  0.70351388  0.01186229  0.55163948    -0.07600
C385        C  0.72944036  0.95147886  0.58872064    -0.14000
C386        C  0.73107597  0.93252005  0.60408820    -0.13800
C387        C  0.73411018  0.91081120  0.62344286     0.25000
C388        C  0.71980396  0.88706646  0.61972651    -0.19200
C389        C  0.72296508  0.86602317  0.63865014    -0.07600
C390        C  0.74049144  0.86854988  0.66151373    -0.03700
C391        C  0.75471268  0.89255317  0.66505087    -0.09000
C392        C  0.75152658  0.91350808  0.64613318    -0.16700
H393        H  0.77011052  0.01641146  0.53605275     0.11500
H394        H  0.77102890  0.97498242  0.56324533     0.10800
H395        H  0.68578726  0.98058635  0.57613479     0.10700
H396        H  0.68452650  0.02202082  0.54891586     0.11200
H397        H  0.70626657  0.88480304  0.60220314     0.11300
H398        H  0.71177667  0.84779224  0.63532956     0.11300
H399        H  0.76840103  0.89514683  0.68238104     0.11400
H400        H  0.76269567  0.93181472  0.64918299     0.10200
C401        C  0.19165145  0.85928715  0.26491910    -0.03600
C402        C  0.16510466  0.86843564  0.26220499    -0.09300
C403        C  0.14534612  0.86002880  0.28092289    -0.17000
C404        C  0.15183268  0.84239523  0.30256304     0.25100
C405        C  0.17814667  0.83312795  0.30539824    -0.18700
C406        C  0.19793714  0.84148407  0.28670354    -0.07600
C407        C  0.13162179  0.83431678  0.32222386    -0.14000
C408        C  0.11469463  0.82843661  0.33907236    -0.13800
C409        C  0.09447206  0.82281917  0.35963834     0.25000
C410        C  0.08630662  0.79654298  0.36473877    -0.19200
C411        C  0.06668884  0.79129721  0.38487547    -0.07600
C412        C  0.05507177  0.81231553  0.40018985    -0.03700
C413        C  0.06344656  0.83863681  0.39485726    -0.09000
C414        C  0.08297910  0.84381763  0.37471158    -0.16700
H415        H  0.15960395  0.88215589  0.24569608     0.11500
H416        H  0.12504325  0.86739593  0.27860531     0.10800
H417        H  0.18340206  0.81955447  0.32214438     0.10700
H418        H  0.21817543  0.83410594  0.28941741     0.11200
H419        H  0.09511209  0.78013241  0.35319619     0.11300
H420        H  0.06072459  0.77081891  0.38853055     0.11300
H421        H  0.05489908  0.85527509  0.40622832     0.11400
H422        H  0.08915308  0.86422816  0.37092208     0.10200
C423        C  0.05738355  0.78330369  0.51522600    -0.03600
C424        C  0.06715908  0.75724014  0.51951579    -0.09300
C425        C  0.08689025  0.75232879  0.53964401    -0.17000
C426        C  0.09702463  0.77339691  0.55562875     0.25100
C427        C  0.08755788  0.79936010  0.55134636    -0.18700
C428        C  0.06789310  0.80431352  0.53130607    -0.07600
C429        C  0.11697402  0.76879853  0.57669881    -0.14000
C430        C  0.13345100  0.76832333  0.59504565    -0.13800
C431        C  0.15256406  0.77209671  0.61709397     0.25000
C432        C  0.14616364  0.78912091  0.63925430    -0.19200
C433        C  0.16552605  0.79564041  0.65911732    -0.07600
C434        C  0.19163956  0.78527097  0.65699413    -0.03700
C435        C  0.19764101  0.76736556  0.63520690    -0.09000
C436        C  0.17818985  0.76087281  0.61531621    -0.16700
H437        H  0.05947704  0.74064826  0.50745281     0.11500
H438        H  0.09412575  0.73215618  0.54281169     0.10800
H439        H  0.09530910  0.81580362  0.56362155     0.10700
H440        H  0.06084505  0.82459336  0.52852822     0.11200
H441        H  0.12640894  0.79802238  0.64070825     0.11300
H442        H  0.16023245  0.80940643  0.67565559     0.11300
H443        H  0.21754076  0.75896921  0.63306880     0.11400
H444        H  0.18336060  0.74776603  0.59814579     0.10200
C445        C  0.94410478  0.78457782  0.51881504    -0.03600
C446        C  0.93426864  0.80601881  0.53479880    -0.09300
C447        C  0.91559588  0.80163626  0.55598635    -0.17000
C448        C  0.90647293  0.77580629  0.56158943     0.25100
C449        C  0.91604078  0.75429325  0.54580305    -0.18700
C450        C  0.93475718  0.75863667  0.52450586    -0.07600
C451        C  0.88723305  0.77178229  0.58354426    -0.14000
C452        C  0.87100759  0.77108252  0.60216312    -0.13800
C453        C  0.85154296  0.77351209  0.62416577     0.25000
C454        C  0.82587786  0.76274469  0.62092881    -0.19200
C455        C  0.80612067  0.76770559  0.64097963    -0.07600
C456        C  0.81178634  0.78364444  0.66446008    -0.03700
C457        C  0.83791988  0.79358272  0.66798844    -0.09000
C458        C  0.85763010  0.78856357  0.64794078    -0.16700
H459        H  0.94100364  0.82622965  0.53097745     0.11500
H460        H  0.90828331  0.81843529  0.56804831     0.10800
H461        H  0.90907845  0.73421034  0.54996276     0.10700
H462        H  0.94197342  0.74171299  0.51260960     0.11200
H463        H  0.82091373  0.75118140  0.60252994     0.11300
H464        H  0.78620299  0.75978141  0.63761726     0.11300
H465        H  0.84294952  0.80590770  0.68580093     0.11400
H466        H  0.87740791  0.79710102  0.65058040     0.10200
C467        C  0.80555306  0.85656970  0.26480875    -0.03600
C468        C  0.79991136  0.83798992  0.28604659    -0.09300
C469        C  0.81954646  0.83101218  0.30554555    -0.17000
C470        C  0.84504100  0.84249516  0.30410216     0.25100
C471        C  0.85095349  0.86076928  0.28289116    -0.18700
C472        C  0.83136323  0.86775392  0.26332903    -0.07600
C473        C  0.86498158  0.83585658  0.32465033    -0.14000
C474        C  0.88161972  0.83059315  0.34204303    -0.13800
C475        C  0.90155464  0.82463686  0.36282270     0.25000
C476        C  0.91477705  0.79998869  0.36255263    -0.19200
C477        C  0.93439313  0.79432455  0.38254575    -0.07600
C478        C  0.94112451  0.81335255  0.40296730    -0.03700
C479        C  0.92763326  0.83803380  0.40313471    -0.09000
C480        C  0.90792896  0.84358954  0.38321829    -0.16700
H481        H  0.78025741  0.82900734  0.28776837     0.11500
H482        H  0.81477100  0.81683739  0.32188294     0.10800
H483        H  0.87063631  0.86978873  0.28160945     0.10700
H484        H  0.83633107  0.88215661  0.24729575     0.11200
H485        H  0.91000590  0.78519495  0.34682423     0.11300
H486        H  0.94449900  0.77519468  0.38180707     0.11300
H487        H  0.93227783  0.85304244  0.41866368     0.11400
H488        H  0.89776623  0.86271342  0.38364206     0.10200
C489        C  0.26172638  0.32631024  0.34117694    -0.03600
C490        C  0.24649990  0.30286237  0.33815860    -0.09300
C491        C  0.24996128  0.28151568  0.35655018    -0.17000
C492        C  0.26868607  0.28322152  0.37819498     0.25100
C493        C  0.28401662  0.30640781  0.38138429    -0.18700
C494        C  0.28055715  0.32786368  0.36299812    -0.07600
C495        C  0.27196266  0.26107163  0.39701095    -0.14000
C496        C  0.27362535  0.24175655  0.41192066    -0.13800
C497        C  0.27448995  0.21794153  0.42868724     0.25000
C498        C  0.29908575  0.20625670  0.43563590    -0.19200
C499        C  0.29979485  0.18247772  0.45092976    -0.07600
C500        C  0.27585760  0.17005303  0.45940528    -0.03700
C501        C  0.25124695  0.18215963  0.45259195    -0.09000
C502        C  0.25059930  0.20592485  0.43732527    -0.16700
H503        H  0.23177730  0.30102143  0.32166364     0.11500
H504        H  0.23797656  0.26367008  0.35390790     0.10800
H505        H  0.29857861  0.30792176  0.39808517     0.10700
H506        H  0.29256414  0.34563769  0.36589495     0.11200
H507        H  0.31769812  0.21535747  0.42897277     0.11300
H508        H  0.31906153  0.17366464  0.45579164     0.11300
H509        H  0.23246200  0.17312881  0.45877166     0.11400
H510        H  0.23144496  0.21476808  0.43198699     0.10200
C511        C  0.26406093  0.25033766  0.73404552    -0.03600
C512        C  0.24879906  0.22677699  0.73551154    -0.09300
C513        C  0.25165949  0.20695597  0.71513694    -0.17000
C514        C  0.26984093  0.21044077  0.69319178     0.25100
C515        C  0.28531385  0.23363649  0.69178670    -0.18700
C516        C  0.28248337  0.25344400  0.71205174    -0.07600
C517        C  0.27193858  0.19092638  0.67132162    -0.14000
C518        C  0.27362615  0.17625013  0.65148995    -0.13800
C519        C  0.27502544  0.16081999  0.62625157     0.25000
C520        C  0.29930172  0.15844158  0.61182630    -0.19200
C521        C  0.30014358  0.14537416  0.58603998    -0.07600
C522        C  0.27662023  0.13473099  0.57432051    -0.03700
C523        C  0.25245196  0.13672407  0.58930586    -0.09000
C524        C  0.25169031  0.14968251  0.61510006    -0.16700
H525        H  0.23437990  0.22384222  0.75211395     0.11500
H526        H  0.23946679  0.18911294  0.71629445     0.10800
H527        H  0.29933199  0.23658129  0.67479264     0.10700
H528        H  0.29450557  0.27134060  0.71026304     0.11200
H529        H  0.31745752  0.16713058  0.62024372     0.11300
H530        H  0.31905746  0.14409659  0.57504279     0.11300
H531        H  0.23404728  0.12852272  0.58097499     0.11400
H532        H  0.23279061  0.15148395  0.62607565     0.10200
C533        C  0.27856284  0.02825679  0.53876190    -0.03600
C534        C  0.25437620  0.01530833  0.54535366    -0.09300
C535        C  0.25450203  0.99152925  0.56057432    -0.17000
C536        C  0.27874966  0.98032316  0.56940961     0.25100
C537        C  0.30295359  0.99288959  0.56276927    -0.18700
C538        C  0.30288931  0.01670450  0.54749916    -0.07600
C539        C  0.27853030  0.95639471  0.58601500    -0.14000
C540        C  0.27679156  0.93698361  0.60077010    -0.13800
C541        C  0.27279007  0.91488662  0.61948761     0.25000
C542        C  0.25541732  0.91784046  0.64216737    -0.19200
C543        C  0.25098394  0.89653166  0.66034010    -0.07600
C544        C  0.26390890  0.87186529  0.65612319    -0.03700
C545        C  0.28143751  0.86905711  0.63329580    -0.09000
C546        C  0.28581843  0.89047253  0.61505952    -0.16700
H547        H  0.23530766  0.02366429  0.53899306     0.11500
H548        H  0.23564540  0.98201429  0.56569404     0.10800
H549        H  0.32183475  0.98443216  0.56961438     0.10700
H550        H  0.32184065  0.02621140  0.54283748     0.11200
H551        H  0.24520455  0.93663292  0.64577105     0.11300
H552        H  0.23738655  0.89941626  0.67769599     0.11300
H553        H  0.29164055  0.85032403  0.62945875     0.11400
H554        H  0.29927359  0.88797067  0.59750713     0.10200
C555        C  0.27755273  0.06205047  0.42441505    -0.03600
C556        C  0.25320496  0.05473000  0.41173755    -0.09300
C557        C  0.25311067  0.04058470  0.38660857    -0.17000
C558        C  0.27729409  0.03362533  0.37375892     0.25100
C559        C  0.30162127  0.04124062  0.38589714    -0.18700
C560        C  0.30177664  0.05540660  0.41106242    -0.07600
C561        C  0.27702279  0.01751785  0.34891144    -0.14000
C562        C  0.27583332  0.00271832  0.32912005    -0.13800
C563        C  0.27329380  0.98356461  0.30691686     0.25000
C564        C  0.28775914  0.95965947  0.30806142    -0.19200
C565        C  0.28383410  0.94005595  0.28773190    -0.07600
C566        C  0.26528927  0.94408155  0.26598014    -0.03700
C567        C  0.25128691  0.96845024  0.26463851    -0.09000
C568        C  0.25525659  0.98804505  0.28502762    -0.16700
H569        H  0.23420773  0.05956869  0.42142513     0.11500
H570        H  0.23416971  0.03470377  0.37742908     0.10800
H571        H  0.32046014  0.03587052  0.37615044     0.10700
H572        H  0.32084524  0.06080061  0.42024205     0.11200
H573        H  0.30168689  0.95594535  0.32498456     0.11300
H574        H  0.29494734  0.92154229  0.28938826     0.11300
H575        H  0.23687906  0.97216903  0.24818233     0.11400
H576        H  0.24387311  0.00645291  0.28402502     0.10200
C577        C  0.77942785  0.55527427  0.07740529    -0.03600
C578        C  0.75554449  0.55258557  0.09274338    -0.09300
C579        C  0.75553251  0.53961178  0.11852086    -0.17000
C580        C  0.77933451  0.52911550  0.12932824     0.25100
C581        C  0.80331496  0.53202926  0.11447870    -0.18700
C582        C  0.80340632  0.54513885  0.08868143    -0.07600
C583        C  0.77863588  0.51388281  0.15472920    -0.14000
C584        C  0.77674861  0.49946374  0.17474432    -0.13800
C585        C  0.77352443  0.48021961  0.19672283     0.25000
C586        C  0.78790374  0.45628132  0.19567308    -0.19200
C587        C  0.78346288  0.43652436  0.21567042    -0.07600
C588        C  0.76449245  0.44042520  0.23702497    -0.03700
C589        C  0.75047130  0.46478635  0.23825318    -0.09000
C590        C  0.75493849  0.48454987  0.21814418    -0.16700
H591        H  0.73678913  0.56034611  0.08475257     0.11500
H592        H  0.73685309  0.53736141  0.12980274     0.10800
H593        H  0.82182663  0.52380442  0.12261177     0.10700
H594        H  0.82210653  0.54692915  0.07737827     0.11200
H595        H  0.80221283  0.45267749  0.17907821     0.11300
H596        H  0.79462251  0.41803034  0.21412669     0.11300
H597        H  0.73572469  0.46837729  0.25440469     0.11400
H598        H  0.74357306  0.50297368  0.21901313     0.10200
C599        C  0.77736712  0.66249684  0.04310031    -0.03600
C600        C  0.80119707  0.67692681  0.04734251    -0.09300
C601        C  0.80086375  0.70090661  0.06229646    -0.17000
C602        C  0.77675880  0.71066964  0.07320143     0.25100
C603        C  0.75295622  0.69655279  0.06890836    -0.18700
C604        C  0.75321598  0.67266053  0.05391517    -0.07600
C605        C  0.77636288  0.73469193  0.08958305    -0.14000
C606        C  0.77461891  0.75404530  0.10438676    -0.13800
C607        C  0.77079001  0.77602250  0.12324979     0.25000
C608        C  0.75343704  0.77310275  0.14595278    -0.19200
C609        C  0.74917944  0.79436152  0.16425511    -0.07600
C610        C  0.76226112  0.81890282  0.16009922    -0.03700
C611        C  0.77981518  0.82163174  0.13727985    -0.09000
C612        C  0.78402666  0.80028608  0.11894476    -0.16700
H613        H  0.82009124  0.66964558  0.03922598     0.11500
H614        H  0.81940822  0.71167945  0.06557206     0.10800
H615        H  0.73421096  0.70389524  0.07737970     0.10700
H616        H  0.73455000  0.66199635  0.05110970     0.11200
H617        H  0.74308733  0.75439541  0.14944992     0.11300
H618        H  0.73554962  0.79157769  0.18159473     0.11300
H619        H  0.79014363  0.84027704  0.13348768     0.11400
H620        H  0.79748665  0.80273675  0.10139164     0.10200
C621        C  0.76391607  0.74805993  0.76998694    -0.03600
C622        C  0.78161337  0.75169729  0.79254375    -0.09300
C623        C  0.78410579  0.73216793  0.81315483    -0.17000
C624        C  0.76901748  0.70873325  0.81152320     0.25100
C625        C  0.75170058  0.70465455  0.78893713    -0.18700
C626        C  0.74917108  0.72419451  0.76823115    -0.07600
C627        C  0.77058415  0.68954783  0.83374742    -0.14000
C628        C  0.77187136  0.67490338  0.85363257    -0.13800
C629        C  0.77323524  0.65900787  0.87854867     0.25000
C630        C  0.74981579  0.64831227  0.88999011    -0.19200
C631        C  0.75088096  0.63409842  0.91505413    -0.07600
C632        C  0.77544318  0.63038741  0.92897085    -0.03700
C633        C  0.79893704  0.64093731  0.91711238    -0.09000
C634        C  0.79779903  0.65522558  0.89207902    -0.16700
H635        H  0.79324037  0.76983170  0.79454978     0.11500
H636        H  0.79749928  0.73553932  0.83061012     0.10800
H637        H  0.73986261  0.68658879  0.78756038     0.10700
H638        H  0.73534605  0.72082826  0.75116882     0.11200
H639        H  0.73068691  0.65124271  0.87972319     0.11300
H640        H  0.73245003  0.62617886  0.92360902     0.11300
H641        H  0.81812511  0.63850112  0.92736671     0.11400
H642        H  0.81601623  0.66359156  0.88345764     0.10200
C643        C  0.76297567  0.36514693  0.84506606    -0.03600
C644        C  0.78245494  0.36340958  0.86625178    -0.09300
C645        C  0.78617018  0.38457060  0.88493657    -0.17000
C646        C  0.77043284  0.40762365  0.88268741     0.25100
C647        C  0.75094389  0.40943828  0.86179419    -0.18700
C648        C  0.74723669  0.38839523  0.84309736    -0.07600
C649        C  0.77422202  0.42965551  0.90151271    -0.14000
C650        C  0.77614088  0.44909159  0.91619138    -0.13800
C651        C  0.77690569  0.47317165  0.93250880     0.25000
C652        C  0.75304796  0.48404469  0.94280056    -0.19200
C653        C  0.75341666  0.50803788  0.95763956    -0.07600
C654        C  0.77771499  0.52150538  0.96241279    -0.03700
C655        C  0.80165803  0.51030083  0.95218976    -0.09000
C656        C  0.80122181  0.48628981  0.93727857    -0.16700
H657        H  0.79485437  0.34576715  0.86834294     0.11500
H658        H  0.80131583  0.38297629  0.90105998     0.10800
H659        H  0.73863003  0.42718191  0.85990334     0.10700
H660        H  0.73198469  0.39034134  0.82714105     0.11200
H661        H  0.73410329  0.47410384  0.93911581     0.11300
H662        H  0.73463830  0.51610118  0.96522164     0.11300
H663        H  0.82067196  0.52021558  0.95543397     0.11400
H664        H  0.81979022  0.47810139  0.92925740     0.10200
C665        C  0.55494074  0.90664185  0.01553957    -0.03600
C666        C  0.56820929  0.88471851  0.02762564    -0.09300
C667        C  0.58754215  0.88861377  0.04827245    -0.17000
C668        C  0.59383183  0.91441983  0.05725087     0.25100
C669        C  0.58079203  0.93641881  0.04537335    -0.18700
C670        C  0.56148602  0.93257350  0.02454773    -0.07600
C671        C  0.61354487  0.91791671  0.07883287    -0.14000
C672        C  0.63010805  0.91809331  0.09713497    -0.13800
C673        C  0.64965994  0.91488959  0.11893160     0.25000
C674        C  0.67531022  0.92582873  0.11615183    -0.19200
C675        C  0.69500924  0.92036089  0.13615344    -0.07600
C676        C  0.68925644  0.90377867  0.15910720    -0.03700
C677        C  0.66317606  0.89354180  0.16208418    -0.09000
C678        C  0.64355948  0.89904113  0.14210391    -0.16700
H679        H  0.56371086  0.86452203  0.02108677     0.11500
H680        H  0.59753610  0.87145272  0.05732258     0.10800
H681        H  0.58548079  0.95648110  0.05223983     0.10700
H682        H  0.55151416  0.94983077  0.01571963     0.11200
H683        H  0.68027109  0.93801540  0.09820164     0.11300
H684        H  0.71488455  0.92855111  0.13326399     0.11300
H685        H  0.65806666  0.88073088  0.17948940     0.11400
H686        H  0.62380257  0.89035873  0.14437024     0.10200
C687        C  0.44097067  0.90732264  0.01469066    -0.03600
C688        C  0.43251297  0.88622620  0.03194078    -0.09300
C689        C  0.41274565  0.89034691  0.05208794    -0.17000
C690        C  0.40107565  0.91555090  0.05530401     0.25100
C691        C  0.40919688  0.93669065  0.03818028    -0.18700
C692        C  0.42906872  0.93262556  0.01798035    -0.07600
C693        C  0.38090541  0.91937715  0.07637199    -0.14000
C694        C  0.36434892  0.92005363  0.09466781    -0.13800
C695        C  0.34506401  0.91771899  0.11683543     0.25000
C696        C  0.31860946  0.92620973  0.11287640    -0.19200
C697        C  0.29934220  0.92143511  0.13348391    -0.07600
C698        C  0.30631311  0.90789861  0.15819932    -0.03700
C699        C  0.33314001  0.90019999  0.16231979    -0.09000
C700        C  0.35236019  0.90509590  0.14176407    -0.16700
H701        H  0.44124124  0.86651415  0.02998313     0.11500
H702        H  0.40659662  0.87384674  0.06523084     0.10800
H703        H  0.40024358  0.95627916  0.04048085     0.10700
H704        H  0.43508286  0.94924251  0.00496439     0.11200
H705        H  0.31272456  0.93587079  0.09358499     0.11300
H706        H  0.27884260  0.92753014  0.12964982     0.11300
H707        H  0.33916962  0.88982350  0.18113798     0.11400
H708        H  0.37277216  0.89836672  0.14499772     0.10200
C709        C  0.30713448  0.83742820  0.76066413    -0.03600
C710        C  0.30237453  0.85893320  0.77890463    -0.09300
C711        C  0.32216175  0.86713948  0.79768564    -0.17000
C712        C  0.34686181  0.85391927  0.79850137     0.25100
C713        C  0.35191115  0.83276281  0.78017889    -0.18700
C714        C  0.33222123  0.82460424  0.76130133    -0.07600
C715        C  0.36672193  0.86138942  0.81875047    -0.14000
C716        C  0.38333589  0.86659284  0.83614410    -0.13800
C717        C  0.40312543  0.87166364  0.85726508     0.25000
C718        C  0.41203666  0.85077866  0.87429013    -0.19200
C719        C  0.43130009  0.85552405  0.89483928    -0.07600
C720        C  0.44189417  0.88128574  0.89863701    -0.03700
C721        C  0.43278288  0.90217717  0.88142365    -0.09000
C722        C  0.41350811  0.89736203  0.86085131    -0.16700
H723        H  0.28331746  0.86929610  0.77879566     0.11500
H724        H  0.31807753  0.88355267  0.81179407     0.10800
H725        H  0.37095575  0.82235990  0.78071306     0.10700
H726        H  0.33647767  0.80795746  0.74757287     0.11200
H727        H  0.40410917  0.83080852  0.87166378     0.11300
H728        H  0.43788903  0.83900706  0.90772054     0.11300
H729        H  0.44058235  0.92221010  0.88378414     0.11400
H730        H  0.40672973  0.91365563  0.84774556     0.10200
C731        C  0.55448934  0.88010361  0.89856377    -0.03600
C732        C  0.56414562  0.85398165  0.89448673    -0.09300
C733        C  0.58295695  0.84859681  0.87365165    -0.17000
C734        C  0.59238296  0.86918193  0.85657515     0.25100
C735        C  0.58289626  0.89523863  0.86038331    -0.18700
C736        C  0.56405212  0.90069627  0.88125647    -0.07600
C737        C  0.61216447  0.86348602  0.83556354    -0.14000
C738        C  0.62924388  0.85782929  0.81878632    -0.13800
C739        C  0.65023950  0.85023653  0.79980313     0.25000
C740        C  0.64517830  0.83174077  0.77856449    -0.19200
C741        C  0.66587740  0.82355115  0.76084823    -0.07600
C742        C  0.69195708  0.83373205  0.76422134    -0.03700
C743        C  0.69676629  0.85250552  0.78548451    -0.09000
C744        C  0.67602686  0.86068086  0.80314438    -0.16700
H745        H  0.55717577  0.83765687  0.90738655     0.11500
H746        H  0.59020932  0.82836619  0.87091321     0.10800
H747        H  0.59010622  0.91132869  0.84728489     0.10700
H748        H  0.55694786  0.92098543  0.88379007     0.11200
H749        H  0.62530134  0.82345407  0.77586803     0.11300
H750        H  0.66150535  0.80905210  0.74471800     0.11300
H751        H  0.71659030  0.86073507  0.78863270     0.11400
H752        H  0.68016902  0.87494925  0.81958287     0.10200
C753        C  0.22004332  0.67027220  0.03836133    -0.03600
C754        C  0.19540826  0.68233873  0.04522045    -0.09300
C755        C  0.19476721  0.70617267  0.06047455    -0.17000
C756        C  0.21870307  0.71820571  0.06902493     0.25100
C757        C  0.24325854  0.70653610  0.06195711    -0.18700
C758        C  0.24395820  0.68278460  0.04670924    -0.07600
C759        C  0.21833887  0.74189173  0.08603073    -0.14000
C760        C  0.21990610  0.76089289  0.10139422    -0.13800
C761        C  0.22395106  0.78235332  0.12092096     0.25000
C762        C  0.24204196  0.77896258  0.14294666    -0.19200
C763        C  0.24659463  0.79970185  0.16182621    -0.07600
C764        C  0.23309139  0.82422347  0.15895538    -0.03700
C765        C  0.21480704  0.82744310  0.13681064    -0.09000
C766        C  0.21028803  0.80660925  0.11789680    -0.16700
H767        H  0.17664572  0.67324232  0.03906050     0.11500
H768        H  0.17563802  0.71500773  0.06589541     0.10800
H769        H  0.26190425  0.71562706  0.06855745     0.10700
H770        H  0.26324679  0.67404159  0.04181464     0.11200
H771        H  0.25275944  0.76028724  0.14545835     0.11300
H772        H  0.26081591  0.79654385  0.17858487     0.11300
H773        H  0.20414039  0.84608597  0.13398607     0.11400
H774        H  0.19626984  0.80946130  0.10087995     0.10200
C775        C  0.22616392  0.56199648  0.07227315    -0.03600
C776        C  0.20302420  0.55088819  0.08432662    -0.09300
C777        C  0.20455247  0.53726630  0.10977180    -0.17000
C778        C  0.22915468  0.53468753  0.12356444     0.25100
C779        C  0.25222995  0.54590952  0.11189320    -0.18700
C780        C  0.25077491  0.55946140  0.08641912    -0.07600
C781        C  0.23086258  0.51962651  0.14910006    -0.14000
C782        C  0.23205302  0.50572130  0.16961386    -0.13800
C783        C  0.23305046  0.48731029  0.19266396     0.25000
C784        C  0.25231946  0.49014035  0.21371414    -0.19200
C785        C  0.25427698  0.47105168  0.23498171    -0.07600
C786        C  0.23705511  0.44882590  0.23529602    -0.03700
C787        C  0.21733369  0.44658405  0.21442537    -0.09000
C788        C  0.21536986  0.46569007  0.19329672    -0.16700
H789        H  0.18380527  0.55243581  0.07395070     0.11500
H790        H  0.18658801  0.52852227  0.11855344     0.10800
H791        H  0.27139494  0.54395603  0.12233634     0.10700
H792        H  0.26894953  0.56785146  0.07776271     0.11200
H793        H  0.26616284  0.50677748  0.21337623     0.11300
H794        H  0.26974131  0.47328291  0.25066647     0.11300
H795        H  0.20373906  0.42975773  0.21406452     0.11400
H796        H  0.20039931  0.46328833  0.17710312     0.10200
C797        C  0.24113830  0.37174363  0.84161043    -0.03600
C798        C  0.25626756  0.39523375  0.83841965    -0.09300
C799        C  0.25296456  0.41656049  0.85684648    -0.17000
C800        C  0.23451259  0.41479407  0.87871708     0.25100
C801        C  0.21934675  0.39152898  0.88215578    -0.18700
C802        C  0.22263979  0.37008620  0.86371589    -0.07600
C803        C  0.23118266  0.43708351  0.89732375    -0.14000
C804        C  0.22933855  0.45666904  0.91180811    -0.13800
C805        C  0.22797763  0.48085353  0.92793272     0.25000
C806        C  0.20347726  0.49404049  0.93142670    -0.19200
C807        C  0.20232412  0.51803365  0.94629356    -0.07600
C808        C  0.22573959  0.52921936  0.95771606    -0.03700
C809        C  0.25026294  0.51575236  0.95416830    -0.09000
C810        C  0.25133973  0.49170415  0.93940563    -0.16700
H811        H  0.27072345  0.39716920  0.82169050     0.11500
H812        H  0.26479888  0.43447647  0.85399804     0.10800
H813        H  0.20498387  0.38997914  0.89903063     0.10700
H814        H  0.21072092  0.35227466  0.86674624     0.11200
H815        H  0.18530209  0.48589078  0.92247654     0.11300
H816        H  0.18317007  0.52798371  0.94852797     0.11300
H817        H  0.26862814  0.52381256  0.96274636     0.11400
H818        H  0.27042752  0.48169586  0.93673452     0.10200
C819        C  0.22040521  0.63713678  0.92362429    -0.03600
C820        C  0.19610544  0.64629523  0.91215934    -0.09300
C821        C  0.19585262  0.65970733  0.88651534    -0.17000
C822        C  0.21982204  0.66393945  0.87199012     0.25100
C823        C  0.24399806  0.65462676  0.88309683    -0.18700
C824        C  0.24432138  0.64134119  0.90871597    -0.07600
C825        C  0.22001016  0.67897520  0.84640600    -0.14000
C826        C  0.22153049  0.69303659  0.82605357    -0.13800
C827        C  0.22447833  0.71191170  0.80364108     0.25000
C828        C  0.24292551  0.70732814  0.78212611    -0.19200
C829        C  0.24746698  0.72696377  0.76186675    -0.07600
C830        C  0.23364274  0.75144031  0.76302293    -0.03700
C831        C  0.21464134  0.75548839  0.78432798    -0.09000
C832        C  0.21014814  0.73588353  0.80447748    -0.16700
H833        H  0.17737450  0.64341363  0.92315168     0.11500
H834        H  0.17703958  0.66701938  0.87818409     0.10800
H835        H  0.26267655  0.65791818  0.87210074     0.10700
H836        H  0.26334873  0.63446214  0.91688672     0.11200
H837        H  0.25421323  0.68885316  0.78136632     0.11300
H838        H  0.26214934  0.72320855  0.74569291     0.11300
H839        H  0.20356940  0.77404013  0.78579592     0.11400
H840        H  0.19591622  0.73968497  0.82109568     0.10200
C841        C  0.30799027  0.36315774  0.23776037    -0.03600
C842        C  0.30206850  0.34584960  0.21545211    -0.09300
C843        C  0.32212534  0.33788463  0.19686575    -0.17000
C844        C  0.34838664  0.34703987  0.20027990     0.25100
C845        C  0.35457470  0.36407341  0.22253891    -0.18700
C846        C  0.33452196  0.37208887  0.24118545    -0.07600
C847        C  0.36872519  0.33944381  0.18047550    -0.14000
C848        C  0.38517097  0.33343189  0.16311912    -0.13800
C849        C  0.40436491  0.32696133  0.14170655     0.25000
C850        C  0.41250697  0.34661057  0.12278539    -0.19200
C851        C  0.43120352  0.34054376  0.10201280    -0.07600
C852        C  0.44201776  0.31465961  0.09982717    -0.03700
C853        C  0.43353299  0.29494934  0.11879094    -0.09000
C854        C  0.41483997  0.30109560  0.13961367    -0.16700
H855        H  0.28187498  0.33861162  0.21218464     0.11500
H856        H  0.31709119  0.32474753  0.17968207     0.10800
H857        H  0.37483789  0.37133169  0.22534963     0.10700
H858        H  0.33975185  0.38542201  0.25811808     0.11200
H859        H  0.40447303  0.36667415  0.12414924     0.11300
H860        H  0.43727293  0.35618275  0.08775688     0.11300
H861        H  0.44152789  0.27487002  0.11773144     0.11400
H862        H  0.40863734  0.28571145  0.15412631     0.10200
C863        C  0.68911294  0.35652848  0.24034684    -0.03600
C864        C  0.69447968  0.33871601  0.21832515    -0.09300
C865        C  0.67412389  0.33105582  0.20000235    -0.17000
C866        C  0.64815172  0.34102483  0.20345139     0.25100
C867        C  0.64248683  0.35845929  0.22550860    -0.18700
C868        C  0.66283244  0.36617430  0.24388076    -0.07600
C869        C  0.62762367  0.33409292  0.18370917    -0.14000
C870        C  0.61100456  0.32890822  0.16630679    -0.13800
C871        C  0.59166358  0.32354328  0.14480394     0.25000
C872        C  0.58671705  0.29728755  0.13629660    -0.19200
C873        C  0.56806527  0.29218137  0.11518752    -0.07600
C874        C  0.55428911  0.31333901  0.10222006    -0.03700
C875        C  0.55951484  0.33966258  0.11082502    -0.09000
C876        C  0.57803742  0.34469873  0.13204458    -0.16700
H877        H  0.71447523  0.33091090  0.21503215     0.11500
H878        H  0.67871725  0.31759929  0.18294671     0.10800
H879        H  0.62243234  0.36632810  0.22830986     0.10700
H880        H  0.65803996  0.37987210  0.26064417     0.11200
H881        H  0.59727018  0.28078371  0.14596117     0.11300
H882        H  0.56453710  0.27171332  0.10892509     0.11300
H883        H  0.54911587  0.35634660  0.10134767     0.11400
H884        H  0.58176034  0.36509866  0.13847183     0.10200
C885        C  0.55721094  0.28427849  0.98632067    -0.03600
C886        C  0.56962901  0.25908441  0.98455611    -0.09300
C887        C  0.58944795  0.25425435  0.96449950    -0.17000
C888        C  0.59696877  0.27450015  0.94596884     0.25100
C889        C  0.58475844  0.29959329  0.94762678    -0.18700
C890        C  0.56506074  0.30449114  0.96766242    -0.07600
C891        C  0.61715345  0.26988515  0.92511300    -0.14000
C892        C  0.63374286  0.26869493  0.90689378    -0.13800
C893        C  0.65299695  0.27079700  0.88470071     0.25000
C894        C  0.67863654  0.25978807  0.88758861    -0.19200
C895        C  0.69811079  0.26443297  0.86715320    -0.07600
C896        C  0.69213005  0.28026426  0.84367778    -0.03700
C897        C  0.66600592  0.29041835  0.84054164    -0.09000
C898        C  0.64662034  0.28573796  0.86094533    -0.16700
H899        H  0.56407051  0.24314463  0.99867386     0.11500
H900        H  0.59883302  0.23477035  0.96341142     0.10800
H901        H  0.59044318  0.31539974  0.93336832     0.10700
H902        H  0.55586425  0.32406871  0.96839558     0.11200
H903        H  0.68379648  0.24828554  0.90597781     0.11300
H904        H  0.71804241  0.25636988  0.87019142     0.11300
H905        H  0.66073062  0.30268234  0.82274864     0.11400
H906        H  0.62685964  0.29444731  0.85857892     0.10200
C907        C  0.31138537  0.28476728  0.83924422    -0.03600
C908        C  0.30548527  0.26856161  0.86245129    -0.09300
C909        C  0.32531627  0.26263685  0.88214266    -0.17000
C910        C  0.35124982  0.27270599  0.87877429     0.25100
C911        C  0.35752396  0.28800508  0.85524745    -0.18700
C912        C  0.33776072  0.29397964  0.83557546    -0.07600
C913        C  0.37081065  0.26962375  0.90055204    -0.14000
C914        C  0.38721431  0.27032506  0.91897851    -0.13800
C915        C  0.40655151  0.27481963  0.94070058     0.25000
C916        C  0.41460645  0.30094176  0.94663135    -0.19200
C917        C  0.43329253  0.30581446  0.96769434    -0.07600
C918        C  0.44416167  0.28457071  0.98321177    -0.03700
C919        C  0.43592086  0.25832851  0.97714344    -0.07400
C920        C  0.41722046  0.25349546  0.95596651    -0.16700
H921        H  0.28537777  0.26115380  0.86586826     0.11500
H922        H  0.32022142  0.25091526  0.90038941     0.10800
H923        H  0.37750855  0.29603436  0.85255043     0.10700
H924        H  0.34297690  0.30645796  0.81794172     0.11200
H925        H  0.40642473  0.31758823  0.93494231     0.11300
H926        H  0.43918310  0.32623065  0.97183123     0.11300
H927        H  0.44399594  0.24154095  0.98865282     0.11400
H928        H  0.41110432  0.23319424  0.95151990     0.10200
loop_ 
_geom_bond_atom_site_label_1 
_geom_bond_atom_site_label_2 
_geom_bond_distance 
_geom_bond_site_symmetry_2 
_ccdc_geom_bond_type 
O1           Ni9   1.917       .  S
O1           C11   1.281       .  A
O2           Ni9   1.914       .  S
O2           C12   1.281       .  A
O3           Ni9   1.922       .  S
O3           C13   1.283       .  A
O4           Ni9   1.919       .  S
O4           C14   1.282       .  A
O5          Ni10   1.913       .  S
O5           C14   1.281       .  A
O6          Ni10   1.912       .  S
O6           C13   1.281       .  A
O7          Ni10   1.915       .  S
O7           C12   1.282       .  A
O8          Ni10   1.914       .  S
O8           C11   1.282       .  A
Ni9         Ni10   2.387       .  S
C11         C918   1.479   1_554  S
C12         C874   1.478       .  S
C13         C852   1.482       .  S
C14         C885   1.480   1_554  S
O15         Ni23   1.922   1_554  S
O15          C25   1.283       .  A
O16         Ni23   1.921       .  S
O16          C26   1.282       .  A
O17         Ni23   1.917       .  S
O17          C27   1.282       .  A
O18         Ni23   1.918   1_554  S
O18          C28   1.282       .  A
O19         Ni24   1.916   1_554  S
O19          C28   1.282       .  A
O20         Ni24   1.916       .  S
O20          C27   1.282       .  A
O21         Ni24   1.912       .  S
O21          C26   1.281       .  A
O22         Ni24   1.912   1_554  S
O22          C25   1.281       .  A
Ni23        Ni24   2.386       .  S
C25         C775   1.481       .  S
C26         C819   1.480       .  S
C27         C808   1.480       .  S
C28         C753   1.481       .  S
O29         Ni37   1.921       .  S
O29          C39   1.283       .  A
O30         Ni37   1.920       .  S
O30          C40   1.282       .  A
O31         Ni37   1.920       .  S
O31          C41   1.282       .  A
O32         Ni37   1.917       .  S
O32          C42   1.282       .  A
O33         Ni38   1.912       .  S
O33          C42   1.281       .  A
O34         Ni38   1.912       .  S
O34          C41   1.281       .  A
O35         Ni38   1.912       .  S
O35          C40   1.281       .  A
O36         Ni38   1.911       .  S
O36          C39   1.281       .  A
Ni37        Ni38   2.387       .  S
C39         C731   1.481       .  S
C40         C687   1.480   1_556  S
C41         C665   1.479   1_556  S
C42         C720   1.479       .  S
O43         Ni51   1.912   1_556  S
O43          C53   1.281       .  A
O44         Ni51   1.910       .  S
O44          C54   1.281       .  A
O45         Ni51   1.912       .  S
O45          C55   1.281       .  A
O46         Ni51   1.913   1_556  S
O46          C56   1.281       .  A
O47         Ni52   1.919   1_556  S
O47          C56   1.282       .  A
O48         Ni52   1.917       .  S
O48          C55   1.282       .  A
O49         Ni52   1.919       .  S
O49          C54   1.282       .  A
O50         Ni52   1.917   1_556  S
O50          C53   1.282       .  A
Ni51        Ni52   2.387       .  S
C53         C632   1.478       .  S
C54         C577   1.478       .  S
C55         C599   1.478       .  S
C56         C654   1.480       .  S
O57         Ni65   1.914       .  S
O57          C67   1.281       .  A
O58         Ni65   1.916       .  S
O58          C68   1.282       .  A
O59         Ni65   1.913       .  S
O59          C69   1.281       .  A
O60         Ni65   1.912       .  S
O60          C70   1.281       .  A
O61         Ni66   1.918       .  S
O61          C70   1.282       .  A
O62         Ni66   1.919       .  S
O62          C69   1.282       .  A
O63         Ni66   1.918       .  S
O63          C68   1.282       .  A
O64         Ni66   1.918       .  S
O64          C67   1.282       .  A
Ni65        Ni66   2.387       .  S
C67         C533   1.481       .  S
C68         C500   1.481       .  S
C69         C555   1.480       .  S
C70         C522   1.478       .  S
O71         Ni79   1.913   1_455  S
O71          C81   1.281       .  A
O72         Ni79   1.912       .  S
O72          C82   1.281       .  A
O73         Ni79   1.913   1_455  S
O73          C83   1.281       .  A
O74         Ni79   1.914       .  S
O74          C84   1.281       .  A
O75         Ni80   1.918       .  S
O75          C84   1.282       .  A
O76         Ni80   1.917   1_455  S
O76          C83   1.281       .  A
O77         Ni80   1.921       .  S
O77          C82   1.282       .  A
O78         Ni80   1.920   1_455  S
O78          C81   1.282       .  A
Ni79        Ni80   2.387       .  S
C81         C412   1.481       .  S
C82         C445   1.481       .  S
C83         C423   1.479       .  S
C84         C478   1.479       .  S
O85         Ni93   1.915       .  S
O85          C95   1.281       .  A
O86         Ni93   1.914       .  S
O86          C96   1.281       .  A
O87         Ni93   1.919       .  S
O87          C97   1.282       .  A
O88         Ni93   1.920       .  S
O88          C98   1.282       .  A
O89         Ni94   1.913       .  S
O89          C98   1.281       .  A
O90         Ni94   1.914       .  S
O90          C97   1.281       .  A
O91         Ni94   1.916       .  S
O91          C96   1.282       .  A
O92         Ni94   1.917       .  S
O92          C95   1.282       .  A
Ni93        Ni94   2.387       .  S
C95         C346   1.480       .  S
C96         C379   1.479       .  S
C97         C313   1.481       .  S
C98         C357   1.481       .  S
O99        Ni107   1.914       .  S
O99         C109   1.282       .  A
O100       Ni107   1.913   1_455  S
O100        C110   1.281       .  A
O101       Ni107   1.912       .  S
O101        C111   1.281       .  A
O102       Ni107   1.915   1_455  S
O102        C112   1.282       .  A
O103       Ni108   1.919   1_455  S
O103        C112   1.282       .  A
O104       Ni108   1.918       .  S
O104        C111   1.282       .  A
O105       Ni108   1.915   1_455  S
O105        C110   1.281       .  A
O106       Ni108   1.914       .  S
O106        C109   1.281       .  A
Ni107      Ni108   2.387       .  S
C109        C269   1.478       .  S
C110        C225   1.477       .  S
C111        C291   1.478       .  S
C112        C258   1.481       .  S
O113       Ni121   1.923       .  S
O113        C123   1.283       .  A
O114       Ni121   1.921       .  S
O114        C124   1.282       .  A
O115       Ni121   1.920       .  S
O115        C125   1.282       .  A
O116       Ni121   1.922       .  S
O116        C126   1.283       .  A
O117       Ni122   1.914       .  S
O117        C126   1.281       .  A
O118       Ni122   1.915       .  S
O118        C125   1.281       .  A
O119       Ni122   1.912       .  S
O119        C124   1.281       .  A
O120       Ni122   1.911       .  S
O120        C123   1.281       .  A
Ni121      Ni122   2.386       .  S
C123        C786   1.481       .  S
C124        C489   1.481       .  S
C125        C841   1.482       .  S
C126        C247   1.482       .  S
O127       Ni135   1.917       .  S
O127        C137   1.282       .  A
O128       Ni135   1.916       .  S
O128        C138   1.281       .  A
O129       Ni135   1.921       .  S
O129        C139   1.283       .  A
O130       Ni135   1.921       .  S
O130        C140   1.282       .  A
O131       Ni136   1.909       .  S
O131        C140   1.281       .  A
O132       Ni136   1.909       .  S
O132        C139   1.280       .  A
O133       Ni136   1.913       .  S
O133        C138   1.281       .  A
O134       Ni136   1.913       .  S
O134        C137   1.281       .  A
Ni135      Ni136   2.387       .  S
C137        C863   1.479       .  S
C138        C280   1.478       .  S
C139        C588   1.479       .  S
C140        C335   1.480       .  S
O141       Ni149   1.912       .  S
O141        C151   1.281       .  A
O142       Ni149   1.912       .  S
O142        C152   1.281       .  A
O143       Ni149   1.911       .  S
O143        C153   1.281       .  A
O144       Ni149   1.912       .  S
O144        C154   1.281       .  A
O145       Ni150   1.917       .  S
O145        C154   1.282       .  A
O146       Ni150   1.918       .  S
O146        C153   1.282       .  A
O147       Ni150   1.920       .  S
O147        C152   1.282       .  A
O148       Ni150   1.920       .  S
O148        C151   1.282       .  A
Ni149      Ni150   2.387       .  S
C151        C643   1.480       .  S
C152        C324   1.480       .  S
C153        C896   1.479       .  S
C154        C302   1.479       .  S
O155       Ni163   1.918       .  S
O155        C165   1.282       .  A
O156       Ni163   1.918       .  S
O156        C166   1.282       .  A
O157       Ni163   1.919       .  S
O157        C167   1.282       .  A
O158       Ni163   1.919       .  S
O158        C168   1.282       .  A
O159       Ni164   1.912       .  S
O159        C168   1.281       .  A
O160       Ni164   1.912       .  S
O160        C167   1.281       .  A
O161       Ni164   1.914       .  S
O161        C166   1.281       .  A
O162       Ni164   1.914       .  S
O162        C165   1.281       .  A
Ni163      Ni164   2.387       .  S
C165        C676   1.480       .  S
C166        C467   1.480       .  S
C167        C610   1.480       .  S
C168        C368   1.480       .  S
O169       Ni177   1.909       .  S
O169        C179   1.280       .  A
O170       Ni177   1.910       .  S
O170        C180   1.280       .  A
O171       Ni177   1.918       .  S
O171        C181   1.282       .  A
O172       Ni177   1.917       .  S
O172        C182   1.282       .  A
O173       Ni178   1.915       .  S
O173        C182   1.281       .  A
O174       Ni178   1.915       .  S
O174        C181   1.281       .  A
O175       Ni178   1.920       .  S
O175        C180   1.282       .  A
O176       Ni178   1.920       .  S
O176        C179   1.282       .  A
Ni177      Ni178   2.387       .  S
C179        C621   1.479       .  S
C180        C390   1.479       .  S
C181        C742   1.481       .  S
C182        C456   1.481       .  S
O183       Ni191   1.914       .  S
O183        C193   1.281       .  A
O184       Ni191   1.915       .  S
O184        C194   1.281       .  A
O185       Ni191   1.914       .  S
O185        C195   1.281       .  A
O186       Ni191   1.912       .  S
O186        C196   1.281       .  A
O187       Ni192   1.921       .  S
O187        C196   1.282       .  A
O188       Ni192   1.920       .  S
O188        C195   1.282       .  A
O189       Ni192   1.918       .  S
O189        C194   1.282       .  A
O190       Ni192   1.917       .  S
O190        C193   1.282       .  A
Ni191      Ni192   2.386       .  S
C193        C698   1.480       .  S
C194        C401   1.481       .  S
C195        C764   1.481       .  S
C196        C566   1.481       .  S
O197       Ni205   1.916       .  S
O197        C207   1.281       .  A
O198       Ni205   1.914       .  S
O198        C208   1.282       .  A
O199       Ni205   1.908       .  S
O199        C209   1.280       .  A
O200       Ni205   1.908       .  S
O200        C210   1.280       .  A
O201       Ni206   1.925       .  S
O201        C210   1.283       .  A
O202       Ni206   1.924       .  S
O202        C209   1.283       .  A
O203       Ni206   1.914       .  S
O203        C208   1.281       .  A
O204       Ni206   1.914       .  S
O204        C207   1.281       .  A
Ni205      Ni206   2.387       .  S
C207        C709   1.478       .  S
C208        C434   1.478       .  S
C209        C830   1.481       .  S
C210        C544   1.481       .  S
O211       Ni219   1.915       .  S
O211        C221   1.282       .  A
O212       Ni219   1.916       .  S
O212        C222   1.281       .  A
O213       Ni219   1.910       .  S
O213        C223   1.280       .  A
O214       Ni219   1.909       .  S
O214        C224   1.280       .  A
O215       Ni220   1.920       .  S
O215        C224   1.282       .  A
O216       Ni220   1.922       .  S
O216        C223   1.283       .  A
O217       Ni220   1.914       .  S
O217        C222   1.281       .  A
O218       Ni220   1.915       .  S
O218        C221   1.281       .  A
Ni219      Ni220   2.387       .  S
C221        C907   1.479       .  S
C222        C236   1.478       .  S
C223        C797   1.480       .  S
C224        C511   1.479       .  S
C225        C226   1.407       .  A
C225        C230   1.406       .  A
C226        C227   1.398       .  A
C226        H239   1.083       .  S
C227        C228   1.399       .  A
C227        H240   1.083       .  S
C228        C229   1.399       .  A
C228        C231   1.436       .  S
C229        C230   1.396       .  A
C229        H241   1.084       .  S
C230        H242   1.083       .  S
C231        C232   1.204       .  T
C232        C233   1.436       .  S
C233        C234   1.399       .  A
C233        C238   1.398       .  A
C234        C235   1.398       .  A
C234        H243   1.083       .  S
C235        C236   1.407       .  A
C235        H244   1.083       .  S
C236        C237   1.407       .  A
C237        C238   1.396       .  A
C237        H245   1.083       .  S
C238        H246   1.084       .  S
C247        C248   1.407       .  A
C247        C252   1.408       .  A
C248        C249   1.397       .  A
C248        H261   1.083       .  S
C249        C250   1.399       .  A
C249        H262   1.084       .  S
C250        C251   1.400       .  A
C250        C253   1.440       .  S
C251        C252   1.400       .  A
C251        H263   1.083       .  S
C252        H264   1.083       .  S
C253        C254   1.206       .  T
C254        C255   1.440       .  S
C255        C256   1.399       .  A
C255        C260   1.400       .  A
C256        C257   1.397       .  A
C256        H265   1.084       .  S
C257        C258   1.407       .  A
C257        H266   1.083       .  S
C258        C259   1.408       .  A
C259        C260   1.400       .  A
C259        H267   1.083       .  S
C260        H268   1.083       .  S
C269        C270   1.408       .  A
C269        C274   1.406       .  A
C270        C271   1.398       .  A
C270        H283   1.083       .  S
C271        C272   1.399       .  A
C271        H284   1.083       .  S
C272        C273   1.398       .  A
C272        C275   1.436       .  S
C273        C274   1.395       .  A
C273        H285   1.084       .  S
C274        H286   1.083       .  S
C275        C276   1.203       .  T
C276        C277   1.435       .  S
C277        C278   1.399       .  A
C277        C282   1.399       .  A
C278        C279   1.396       .  A
C278        H287   1.084       .  S
C279        C280   1.407       .  A
C279        H288   1.083       .  S
C280        C281   1.407       .  A
C281        C282   1.398       .  A
C281        H289   1.083       .  S
C282        H290   1.083       .  S
C291        C292   1.407       .  A
C291        C296   1.407       .  A
C292        C293   1.396       .  A
C292        H305   1.083       .  S
C293        C294   1.398       .  A
C293        H306   1.084       .  S
C294        C295   1.399       .  A
C294        C297   1.436       .  S
C295        C296   1.398       .  A
C295        H307   1.083       .  S
C296        H308   1.083       .  S
C297        C298   1.204       .  T
C298        C299   1.436       .  S
C299        C300   1.398       .  A
C299        C304   1.399       .  A
C300        C301   1.397       .  A
C300        H309   1.084       .  S
C301        C302   1.407       .  A
C301        H310   1.083       .  S
C302        C303   1.407       .  A
C303        C304   1.397       .  A
C303        H311   1.083       .  S
C304        H312   1.084       .  S
C313        C314   1.407       .  A
C313        C318   1.407       .  A
C314        C315   1.397       .  A
C314        H327   1.083       .  S
C315        C316   1.398       .  A
C315        H328   1.084       .  S
C316        C317   1.400       .  A
C316        C319   1.438       .  S
C317        C318   1.399       .  A
C317        H329   1.083       .  S
C318        H330   1.083       .  S
C319        C320   1.205       .  T
C320        C321   1.438       .  S
C321        C322   1.398       .  A
C321        C326   1.400       .  A
C322        C323   1.396       .  A
C322        H331   1.084       .  S
C323        C324   1.407       .  A
C323        H332   1.083       .  S
C324        C325   1.408       .  A
C325        C326   1.400       .  A
C325        H333   1.083       .  S
C326        H334   1.083       .  S
C335        C336   1.408       .  A
C335        C340   1.407       .  A
C336        C337   1.401       .  A
C336        H349   1.083       .  S
C337        C338   1.400       .  A
C337        H350   1.083       .  S
C338        C339   1.398       .  A
C338        C341   1.437       .  S
C339        C340   1.394       .  A
C339        H351   1.084       .  S
C340        H352   1.083       .  S
C341        C342   1.205       .  T
C342        C343   1.437       .  S
C343        C344   1.399       .  A
C343        C348   1.399       .  A
C344        C345   1.397       .  A
C344        H353   1.084       .  S
C345        C346   1.407       .  A
C345        H354   1.083       .  S
C346        C347   1.408       .  A
C347        C348   1.398       .  A
C347        H355   1.083       .  S
C348        H356   1.083       .  S
C357        C358   1.407       .  A
C357        C362   1.408       .  A
C358        C359   1.398       .  A
C358        H371   1.083       .  S
C359        C360   1.399       .  A
C359        H372   1.083       .  S
C360        C361   1.399       .  A
C360        C363   1.438       .  S
C361        C362   1.398       .  A
C361        H373   1.084       .  S
C362        H374   1.083       .  S
C363        C364   1.205   1_545  T
C364        C365   1.438       .  S
C365        C366   1.400       .  A
C365        C370   1.398       .  A
C366        C367   1.399       .  A
C366        H375   1.083   1_565  S
C367        C368   1.408       .  A
C367        H376   1.083       .  S
C368        C369   1.407       .  A
C369        C370   1.396       .  A
C369        H377   1.083       .  S
C370        H378   1.084       .  S
C379        C380   1.407       .  A
C379        C384   1.408       .  A
C380        C381   1.397   1_545  A
C380        H393   1.083       .  S
C381        C382   1.399       .  A
C381        H394   1.084       .  S
C382        C383   1.399       .  A
C382        C385   1.437       .  S
C383        C384   1.398   1_565  A
C383        H395   1.084       .  S
C384        H396   1.083       .  S
C385        C386   1.204       .  T
C386        C387   1.437       .  S
C387        C388   1.400       .  A
C387        C392   1.398       .  A
C388        C389   1.399       .  A
C388        H397   1.083       .  S
C389        C390   1.407       .  A
C389        H398   1.083       .  S
C390        C391   1.407       .  A
C391        C392   1.396       .  A
C391        H399   1.083       .  S
C392        H400   1.084       .  S
C401        C402   1.407       .  A
C401        C406   1.408       .  A
C402        C403   1.398       .  A
C402        H415   1.083       .  S
C403        C404   1.399       .  A
C403        H416   1.084       .  S
C404        C405   1.399       .  A
C404        C407   1.439       .  S
C405        C406   1.398       .  A
C405        H417   1.083       .  S
C406        H418   1.083       .  S
C407        C408   1.205       .  T
C408        C409   1.439       .  S
C409        C410   1.400       .  A
C409        C414   1.398       .  A
C410        C411   1.400       .  A
C410        H419   1.083       .  S
C411        C412   1.408       .  A
C411        H420   1.083       .  S
C412        C413   1.407       .  A
C413        C414   1.396       .  A
C413        H421   1.083       .  S
C414        H422   1.084       .  S
C423        C424   1.408       .  A
C423        C428   1.406       .  A
C424        C425   1.399       .  A
C424        H437   1.083       .  S
C425        C426   1.399       .  A
C425        H438   1.083       .  S
C426        C427   1.398       .  A
C426        C429   1.436       .  S
C427        C428   1.395       .  A
C427        H439   1.084       .  S
C428        H440   1.083       .  S
C429        C430   1.204       .  T
C430        C431   1.436       .  S
C431        C432   1.398       .  A
C431        C436   1.399       .  A
C432        C433   1.395       .  A
C432        H441   1.084       .  S
C433        C434   1.406       .  A
C433        H442   1.083       .  S
C434        C435   1.408       .  A
C435        C436   1.399       .  A
C435        H443   1.083       .  S
C436        H444   1.083       .  S
C445        C446   1.407       .  A
C445        C450   1.408       .  A
C446        C447   1.396       .  A
C446        H459   1.083       .  S
C447        C448   1.398       .  A
C447        H460   1.084       .  S
C448        C449   1.400       .  A
C448        C451   1.439       .  S
C449        C450   1.401       .  A
C449        H461   1.083       .  S
C450        H462   1.083       .  S
C451        C452   1.205       .  T
C452        C453   1.439       .  S
C453        C454   1.399       .  A
C453        C458   1.399       .  A
C454        C455   1.399       .  A
C454        H463   1.083       .  S
C455        C456   1.408       .  A
C455        H464   1.083       .  S
C456        C457   1.407       .  A
C457        C458   1.397       .  A
C457        H465   1.083       .  S
C458        H466   1.084       .  S
C467        C468   1.408       .  A
C467        C472   1.407       .  A
C468        C469   1.398       .  A
C468        H481   1.083       .  S
C469        C470   1.399       .  A
C469        H482   1.083       .  S
C470        C471   1.399       .  A
C470        C473   1.438       .  S
C471        C472   1.398       .  A
C471        H483   1.084       .  S
C472        H484   1.083       .  S
C473        C474   1.205       .  T
C474        C475   1.438       .  S
C475        C476   1.399       .  A
C475        C480   1.399       .  A
C476        C477   1.398       .  A
C476        H485   1.083       .  S
C477        C478   1.407       .  A
C477        H486   1.083       .  S
C478        C479   1.407       .  A
C479        C480   1.398       .  A
C479        H487   1.083       .  S
C480        H488   1.084       .  S
C489        C490   1.407       .  A
C489        C494   1.408       .  A
C490        C491   1.396       .  A
C490        H503   1.083       .  S
C491        C492   1.398       .  A
C491        H504   1.084       .  S
C492        C493   1.400       .  A
C492        C495   1.439       .  S
C493        C494   1.400       .  A
C493        H505   1.083       .  S
C494        H506   1.083       .  S
C495        C496   1.205       .  T
C496        C497   1.439       .  S
C497        C498   1.399       .  A
C497        C502   1.399       .  A
C498        C499   1.399       .  A
C498        H507   1.083       .  S
C499        C500   1.408       .  A
C499        H508   1.083       .  S
C500        C501   1.407       .  A
C501        C502   1.398       .  A
C501        H509   1.083       .  S
C502        H510   1.084       .  S
C511        C512   1.407       .  A
C511        C516   1.407       .  A
C512        C513   1.399       .  A
C512        H525   1.083       .  S
C513        C514   1.400       .  A
C513        H526   1.083       .  S
C514        C515   1.398       .  A
C514        C517   1.437       .  S
C515        C516   1.395       .  A
C515        H527   1.084       .  S
C516        H528   1.083       .  S
C517        C518   1.204       .  T
C518        C519   1.437       .  S
C519        C520   1.400       .  A
C519        C524   1.398       .  A
C520        C521   1.398       .  A
C520        H529   1.083       .  S
C521        C522   1.407       .  A
C521        H530   1.083       .  S
C522        C523   1.407       .  A
C523        C524   1.396       .  A
C523        H531   1.083       .  S
C524        H532   1.084       .  S
C533        C534   1.407       .  A
C533        C538   1.408       .  A
C534        C535   1.397   1_545  A
C534        H547   1.083       .  S
C535        C536   1.399       .  A
C535        H548   1.084       .  S
C536        C537   1.400       .  A
C536        C539   1.439       .  S
C537        C538   1.399   1_565  A
C537        H549   1.083       .  S
C538        H550   1.083       .  S
C539        C540   1.205       .  T
C540        C541   1.439       .  S
C541        C542   1.398       .  A
C541        C546   1.401       .  A
C542        C543   1.395       .  A
C542        H551   1.084       .  S
C543        C544   1.408       .  A
C543        H552   1.083       .  S
C544        C545   1.407       .  A
C545        C546   1.401       .  A
C545        H553   1.083       .  S
C546        H554   1.083       .  S
C555        C556   1.407       .  A
C555        C560   1.407       .  A
C556        C557   1.397       .  A
C556        H569   1.083       .  S
C557        C558   1.399       .  A
C557        H570   1.084       .  S
C558        C559   1.399       .  A
C558        C561   1.438       .  S
C559        C560   1.399       .  A
C559        H571   1.083       .  S
C560        H572   1.083       .  S
C561        C562   1.205       .  T
C562        C563   1.438   1_545  S
C563        C564   1.399       .  A
C563        C568   1.400       .  A
C564        C565   1.397       .  A
C564        H573   1.084       .  S
C565        C566   1.408       .  A
C565        H574   1.083       .  S
C566        C567   1.407       .  A
C567        C568   1.399       .  A
C567        H575   1.083       .  S
C568        H576   1.084   1_565  S
C577        C578   1.407       .  A
C577        C582   1.407       .  A
C578        C579   1.395       .  A
C578        H591   1.083       .  S
C579        C580   1.398       .  A
C579        H592   1.084       .  S
C580        C581   1.400       .  A
C580        C583   1.437       .  S
C581        C582   1.399       .  A
C581        H593   1.083       .  S
C582        H594   1.083       .  S
C583        C584   1.204       .  T
C584        C585   1.437       .  S
C585        C586   1.398       .  A
C585        C590   1.400       .  A
C586        C587   1.395       .  A
C586        H595   1.084       .  S
C587        C588   1.407       .  A
C587        H596   1.083       .  S
C588        C589   1.407       .  A
C589        C590   1.399       .  A
C589        H597   1.083       .  S
C590        H598   1.083       .  S
C599        C600   1.407       .  A
C599        C604   1.407       .  A
C600        C601   1.399       .  A
C600        H613   1.083       .  S
C601        C602   1.399       .  A
C601        H614   1.083       .  S
C602        C603   1.398       .  A
C602        C605   1.437       .  S
C603        C604   1.396       .  A
C603        H615   1.084       .  S
C604        H616   1.083       .  S
C605        C606   1.204       .  T
C606        C607   1.437       .  S
C607        C608   1.398       .  A
C607        C612   1.400       .  A
C608        C609   1.395       .  A
C608        H617   1.084       .  S
C609        C610   1.407       .  A
C609        H618   1.083       .  S
C610        C611   1.408       .  A
C611        C612   1.399       .  A
C611        H619   1.083       .  S
C612        H620   1.083       .  S
C621        C622   1.407       .  A
C621        C626   1.407       .  A
C622        C623   1.395       .  A
C622        H635   1.083       .  S
C623        C624   1.398       .  A
C623        H636   1.084       .  S
C624        C625   1.400       .  A
C624        C627   1.436       .  S
C625        C626   1.399       .  A
C625        H637   1.083       .  S
C626        H638   1.083       .  S
C627        C628   1.204       .  T
C628        C629   1.436       .  S
C629        C630   1.398       .  A
C629        C634   1.399       .  A
C630        C631   1.397       .  A
C630        H639   1.084       .  S
C631        C632   1.407       .  A
C631        H640   1.083       .  S
C632        C633   1.407       .  A
C633        C634   1.398       .  A
C633        H641   1.083       .  S
C634        H642   1.084       .  S
C643        C644   1.408       .  A
C643        C648   1.407       .  A
C644        C645   1.400       .  A
C644        H657   1.083       .  S
C645        C646   1.400       .  A
C645        H658   1.083       .  S
C646        C647   1.398       .  A
C646        C649   1.438       .  S
C647        C648   1.396       .  A
C647        H659   1.084       .  S
C648        H660   1.083       .  S
C649        C650   1.205       .  T
C650        C651   1.438       .  S
C651        C652   1.399       .  A
C651        C656   1.400       .  A
C652        C653   1.397       .  A
C652        H661   1.084       .  S
C653        C654   1.407       .  A
C653        H662   1.083       .  S
C654        C655   1.408       .  A
C655        C656   1.399       .  A
C655        H663   1.083       .  S
C656        H664   1.083       .  S
C665        C666   1.406       .  A
C665        C670   1.408       .  A
C666        C667   1.395       .  A
C666        H679   1.083       .  S
C667        C668   1.399       .  A
C667        H680   1.084       .  S
C668        C669   1.400       .  A
C668        C671   1.438       .  S
C669        C670   1.400       .  A
C669        H681   1.083       .  S
C670        H682   1.083       .  S
C671        C672   1.205       .  T
C672        C673   1.438       .  S
C673        C674   1.400       .  A
C673        C678   1.398       .  A
C674        C675   1.399       .  A
C674        H683   1.083       .  S
C675        C676   1.408       .  A
C675        H684   1.083       .  S
C676        C677   1.407       .  A
C677        C678   1.396       .  A
C677        H685   1.083       .  S
C678        H686   1.084       .  S
C687        C688   1.407       .  A
C687        C692   1.408       .  A
C688        C689   1.395       .  A
C688        H701   1.083       .  S
C689        C690   1.398       .  A
C689        H702   1.084       .  S
C690        C691   1.400       .  A
C690        C693   1.438       .  S
C691        C692   1.400       .  A
C691        H703   1.083       .  S
C692        H704   1.083       .  S
C693        C694   1.205       .  T
C694        C695   1.438       .  S
C695        C696   1.399       .  A
C695        C700   1.399       .  A
C696        C697   1.399       .  A
C696        H705   1.083       .  S
C697        C698   1.408       .  A
C697        H706   1.083       .  S
C698        C699   1.407       .  A
C699        C700   1.397       .  A
C699        H707   1.083       .  S
C700        H708   1.084       .  S
C709        C710   1.407       .  A
C709        C714   1.407       .  A
C710        C711   1.398       .  A
C710        H723   1.083       .  S
C711        C712   1.399       .  A
C711        H724   1.083       .  S
C712        C713   1.399       .  A
C712        C715   1.437       .  S
C713        C714   1.397       .  A
C713        H725   1.084       .  S
C714        H726   1.083       .  S
C715        C716   1.204       .  T
C716        C717   1.436       .  S
C717        C718   1.399       .  A
C717        C722   1.399       .  A
C718        C719   1.396       .  A
C718        H727   1.084       .  S
C719        C720   1.407       .  A
C719        H728   1.083       .  S
C720        C721   1.407       .  A
C721        C722   1.398       .  A
C721        H729   1.083       .  S
C722        H730   1.083       .  S
C731        C732   1.408       .  A
C731        C736   1.407       .  A
C732        C733   1.396       .  A
C732        H745   1.083       .  S
C733        C734   1.398       .  A
C733        H746   1.084       .  S
C734        C735   1.400       .  A
C734        C737   1.438       .  S
C735        C736   1.399       .  A
C735        H747   1.083       .  S
C736        H748   1.083       .  S
C737        C738   1.205       .  T
C738        C739   1.438       .  S
C739        C740   1.399       .  A
C739        C744   1.399       .  A
C740        C741   1.398       .  A
C740        H749   1.084       .  S
C741        C742   1.408       .  A
C741        H750   1.083       .  S
C742        C743   1.407       .  A
C743        C744   1.398       .  A
C743        H751   1.083       .  S
C744        H752   1.083       .  S
C753        C754   1.408       .  A
C753        C758   1.407       .  A
C754        C755   1.400       .  A
C754        H767   1.083       .  S
C755        C756   1.400       .  A
C755        H768   1.083       .  S
C756        C757   1.399       .  A
C756        C759   1.439       .  S
C757        C758   1.397       .  A
C757        H769   1.084       .  S
C758        H770   1.083       .  S
C759        C760   1.206       .  T
C760        C761   1.439       .  S
C761        C762   1.399       .  A
C761        C766   1.400       .  A
C762        C763   1.396       .  A
C762        H771   1.084       .  S
C763        C764   1.407       .  A
C763        H772   1.083       .  S
C764        C765   1.408       .  A
C765        C766   1.400       .  A
C765        H773   1.083       .  S
C766        H774   1.083       .  S
C775        C776   1.407       .  A
C775        C780   1.408       .  A
C776        C777   1.399       .  A
C776        H789   1.083       .  S
C777        C778   1.400       .  A
C777        H790   1.083       .  S
C778        C779   1.399       .  A
C778        C781   1.440       .  S
C779        C780   1.398       .  A
C779        H791   1.084       .  S
C780        H792   1.083       .  S
C781        C782   1.206       .  T
C782        C783   1.439       .  S
C783        C784   1.400       .  A
C783        C788   1.398       .  A
C784        C785   1.400       .  A
C784        H793   1.083       .  S
C785        C786   1.408       .  A
C785        H794   1.083       .  S
C786        C787   1.407       .  A
C787        C788   1.396       .  A
C787        H795   1.083       .  S
C788        H796   1.084       .  S
C797        C798   1.407       .  A
C797        C802   1.407       .  A
C798        C799   1.395       .  A
C798        H811   1.083       .  S
C799        C800   1.398       .  A
C799        H812   1.084       .  S
C800        C801   1.400       .  A
C800        C803   1.438       .  S
C801        C802   1.400       .  A
C801        H813   1.083       .  S
C802        H814   1.083       .  S
C803        C804   1.205       .  T
C804        C805   1.438       .  S
C805        C806   1.399       .  A
C805        C810   1.399       .  A
C806        C807   1.398       .  A
C806        H815   1.084       .  S
C807        C808   1.407       .  A
C807        H816   1.083       .  S
C808        C809   1.407       .  A
C809        C810   1.398       .  A
C809        H817   1.083       .  S
C810        H818   1.084       .  S
C819        C820   1.407       .  A
C819        C824   1.407       .  A
C820        C821   1.400       .  A
C820        H833   1.083       .  S
C821        C822   1.400       .  A
C821        H834   1.083       .  S
C822        C823   1.398       .  A
C822        C825   1.438       .  S
C823        C824   1.396       .  A
C823        H835   1.084       .  S
C824        H836   1.083       .  S
C825        C826   1.205       .  T
C826        C827   1.438       .  S
C827        C828   1.401       .  A
C827        C832   1.397       .  A
C828        C829   1.400       .  A
C828        H837   1.083       .  S
C829        C830   1.407       .  A
C829        H838   1.083       .  S
C830        C831   1.408       .  A
C831        C832   1.395       .  A
C831        H839   1.083       .  S
C832        H840   1.084       .  S
C841        C842   1.408       .  A
C841        C846   1.408       .  A
C842        C843   1.398       .  A
C842        H855   1.083       .  S
C843        C844   1.399       .  A
C843        H856   1.084       .  S
C844        C845   1.400       .  A
C844        C847   1.440       .  S
C845        C846   1.400       .  A
C845        H857   1.084       .  S
C846        H858   1.083       .  S
C847        C848   1.206       .  T
C848        C849   1.440       .  S
C849        C850   1.399       .  A
C849        C854   1.400       .  A
C850        C851   1.397       .  A
C850        H859   1.084       .  S
C851        C852   1.408       .  A
C851        H860   1.083       .  S
C852        C853   1.407       .  A
C853        C854   1.400       .  A
C853        H861   1.083       .  S
C854        H862   1.083       .  S
C863        C864   1.407       .  A
C863        C868   1.407       .  A
C864        C865   1.396       .  A
C864        H877   1.083       .  S
C865        C866   1.398       .  A
C865        H878   1.084       .  S
C866        C867   1.399       .  A
C866        C869   1.437       .  S
C867        C868   1.398       .  A
C867        H879   1.084       .  S
C868        H880   1.083       .  S
C869        C870   1.204       .  T
C870        C871   1.437       .  S
C871        C872   1.399       .  A
C871        C876   1.399       .  A
C872        C873   1.398       .  A
C872        H881   1.083       .  S
C873        C874   1.407       .  A
C873        H882   1.083       .  S
C874        C875   1.406       .  A
C875        C876   1.397       .  A
C875        H883   1.083       .  S
C876        H884   1.084       .  S
C885        C886   1.408       .  A
C885        C890   1.407       .  A
C886        C887   1.400       .  A
C886        H899   1.083       .  S
C887        C888   1.399       .  A
C887        H900   1.083       .  S
C888        C889   1.399       .  A
C888        C891   1.437       .  S
C889        C890   1.395       .  A
C889        H901   1.084       .  S
C890        H902   1.083       .  S
C891        C892   1.204       .  T
C892        C893   1.437       .  S
C893        C894   1.400       .  A
C893        C898   1.398       .  A
C894        C895   1.399       .  A
C894        H903   1.083       .  S
C895        C896   1.408       .  A
C895        H904   1.083       .  S
C896        C897   1.407       .  A
C897        C898   1.395       .  A
C897        H905   1.083       .  S
C898        H906   1.084       .  S
C907        C908   1.408       .  A
C907        C912   1.407       .  A
C908        C909   1.399       .  A
C908        H921   1.083       .  S
C909        C910   1.399       .  A
C909        H922   1.083       .  S
C910        C911   1.399       .  A
C910        C913   1.437       .  S
C911        C912   1.396       .  A
C911        H923   1.084       .  S
C912        H924   1.083       .  S
C913        C914   1.204       .  T
C914        C915   1.437       .  S
C915        C916   1.399       .  A
C915        C920   1.399       .  A
C916        C917   1.395       .  A
C916        H925   1.084       .  S
C917        C918   1.406       .  A
C917        H926   1.083       .  S
C918        C919   1.408       .  A
C919        C920   1.399       .  A
C919        H927   1.083       .  S
C920        H928   1.083       .  S
