geometry optimzed in LAMMPS
_audit_creation_date              2020-12-01 
_audit_creation_method            'lammps2cif' 
_symmetry_space_group_name_H-M    'P1' 
_symmetry_Int_Tables_number       1 
_symmetry_cell_setting            triclinic 
loop_ 
_symmetry_equiv_pos_as_xyz 
  x,y,z 
_cell_length_a                    27.44203492 
_cell_length_b                    27.529789776160346 
_cell_length_c                    27.52827797423383 
_cell_angle_alpha                 89.99519774181871 
_cell_angle_beta                  90.01752446845241 
_cell_angle_gamma                 90.0078161364184 
loop_ 
_atom_site_label 
_atom_site_type_symbol 
_atom_site_fract_x 
_atom_site_fract_y 
_atom_site_fract_z 
_atom_site_charge 
O1          O  0.04959474  0.28842020  0.45180826    -0.70100
O2          O  0.95161187  0.28821164  0.54884667    -0.70300
O3          O  0.04976603  0.28788525  0.54882699    -0.70200
O4          O  0.95144862  0.28852999  0.45185872    -0.70200
O5          O  0.95199505  0.20955393  0.45085287    -0.70100
O6          O  0.04895204  0.20893170  0.54919443    -0.70200
O7          O  0.95147432  0.20925490  0.54883178    -0.70100
O8          O  0.04939563  0.20939669  0.45129160    -0.70300
V9          V  0.00060426  0.28670173  0.50033786     1.35200
V10         V  0.00044299  0.21080244  0.50005286     1.35200
C11         C  0.06606370  0.24900201  0.43511138     0.79200
C12         C  0.93487679  0.24878457  0.56535597     0.79200
C13         C  0.06600778  0.24831232  0.56555735     0.79100
C14         C  0.93519594  0.24913715  0.43474717     0.79000
C15         C  0.21402402  0.28758559  0.25061978     0.04000
C16         C  0.21441745  0.25163171  0.28731274     0.04000
C17         C  0.25102885  0.21555394  0.28753957     0.04000
C18         C  0.28714771  0.21547261  0.25098875     0.04000
C19         C  0.28679139  0.25132410  0.21428081     0.04000
C20         C  0.25024463  0.28743507  0.21411739     0.04000
C21         C  0.78609163  0.25027050  0.71325074     0.04000
C22         C  0.78528791  0.28631668  0.74977924     0.04000
C23         C  0.74902019  0.28535566  0.78609479     0.04000
C24         C  0.71351378  0.24828754  0.78583713     0.04000
C25         C  0.71417056  0.21226255  0.74926063     0.04000
C26         C  0.75046283  0.21325162  0.71289013     0.04000
O27         O  0.54863165  0.95230802  0.28905613    -0.70100
O28         O  0.45152587  0.05053502  0.29036141    -0.70300
O29         O  0.45112559  0.95260525  0.28970765    -0.70200
O30         O  0.54883888  0.05020249  0.28988794    -0.70200
O31         O  0.54890008  0.05031953  0.21090495    -0.70100
O32         O  0.45043562  0.95343997  0.21080486    -0.70200
O33         O  0.45067210  0.05052717  0.21134398    -0.70100
O34         O  0.54842510  0.95321555  0.21015007    -0.70300
V35         V  0.50002389  0.00140427  0.28822459     1.35200
V36         V  0.49960967  0.00189571  0.21234822     1.35200
C37         C  0.56509833  0.93606753  0.24934787     0.79200
C38         C  0.43462941  0.06708330  0.25100948     0.79200
C39         C  0.43412100  0.93638855  0.25021902     0.79100
C40         C  0.56550157  0.06677921  0.25045624     0.79000
C41         C  0.71396009  0.78764627  0.24769182     0.04000
C42         C  0.71455202  0.75156973  0.21114117     0.04000
C43         C  0.75075619  0.71512636  0.21150095     0.04000
C44         C  0.78650466  0.71483771  0.24838118     0.04000
C45         C  0.78612272  0.75092651  0.28482724     0.04000
C46         C  0.74981199  0.78728515  0.28458622     0.04000
O47         O  0.95098780  0.79151159  0.54881980    -0.70100
O48         O  0.04816730  0.79182349  0.45066906    -0.70300
O49         O  0.95065842  0.79222023  0.45084527    -0.70200
O50         O  0.04841368  0.79095450  0.54869545    -0.70200
O51         O  0.04868364  0.71196216  0.54727539    -0.70100
O52         O  0.94973281  0.71328289  0.45100041    -0.70200
O53         O  0.04774432  0.71290570  0.45013639    -0.70100
O54         O  0.95042355  0.71250655  0.54794008    -0.70300
V55         V  0.99955817  0.79011174  0.49974013     1.35200
V56         V  0.99917513  0.71422624  0.49911694     1.35200
C57         C  0.93415666  0.75193786  0.56488231     0.79200
C58         C  0.06447897  0.75239047  0.43367700     0.79200
C59         C  0.93347377  0.75288589  0.43441424     0.79100
C60         C  0.06513563  0.75119995  0.56449631     0.79000
C61         C  0.21245000  0.71340677  0.74982902     0.04000
C62         C  0.21256028  0.74974635  0.71358728     0.04000
C63         C  0.24886952  0.78619428  0.71379682     0.04000
C64         C  0.28509773  0.78619261  0.75034934     0.04000
C65         C  0.28493942  0.74971112  0.78651639     0.04000
C66         C  0.24863919  0.71335530  0.78627500     0.04000
O67         O  0.45140535  0.04803419  0.71208503    -0.70100
O68         O  0.54792808  0.94949062  0.71023959    -0.70300
O69         O  0.45040892  0.95027306  0.71165630    -0.70200
O70         O  0.54870400  0.04729854  0.71064307    -0.70200
O71         O  0.54949676  0.04742978  0.78959670    -0.70100
O72         O  0.45199238  0.94944958  0.79065514    -0.70200
O73         O  0.55038070  0.95047840  0.78920957    -0.70100
O74         O  0.45128028  0.04667578  0.79102790    -0.70300
V75         V  0.49962572  0.99875181  0.71271138     1.35200
V76         V  0.50074188  0.99848446  0.78860405     1.35200
C77         C  0.43483337  0.06402854  0.75179934     0.79200
C78         C  0.56588989  0.93366216  0.74941035     0.79200
C79         C  0.43453917  0.93344678  0.75129962     0.79100
C80         C  0.56578224  0.06389141  0.74992267     0.79000
O81         O  0.28976583  0.54919215  0.04819733    -0.70100
O82         O  0.29084343  0.45087536  0.95140019    -0.70300
O83         O  0.29003664  0.54808352  0.95018223    -0.70200
O84         O  0.29053507  0.45205171  0.04940690    -0.70200
O85         O  0.21134069  0.44973289  0.04737676    -0.70100
O86         O  0.21081729  0.54919245  0.95179709    -0.70200
O87         O  0.21166090  0.45123823  0.95029606    -0.70100
O88         O  0.21059448  0.54762472  0.04888444    -0.70300
V89         V  0.28877348  0.50004262  0.99978665     1.35200
V90         V  0.21265830  0.49945286  0.99957713     1.35200
C91         C  0.24999755  0.56497853  0.06516848     0.79200
C92         C  0.25139974  0.43441238  0.93429614     0.79200
C93         C  0.25030527  0.56523126  0.93450380     0.79100
C94         C  0.25098739  0.43439290  0.06493843     0.79000
O95         O  0.78734837  0.44993111  0.95119089    -0.70100
O96         O  0.78827887  0.54874723  0.04747968    -0.70300
O97         O  0.78746801  0.45091849  0.04828328    -0.70200
O98         O  0.78836694  0.54802455  0.95041330    -0.70200
O99         O  0.70913255  0.54789197  0.94945449    -0.70100
O100        O  0.70828524  0.45231513  0.04928615    -0.70200
O101        O  0.70910405  0.54949872  0.04744545    -0.70100
O102        O  0.70814994  0.45065150  0.95114787    -0.70300
V103        V  0.78629792  0.49940917  0.99931826     1.35200
V104        V  0.71019082  0.50006828  0.99932264     1.35200
C105        C  0.74759104  0.43345864  0.93481022     0.79200
C106        C  0.74885544  0.56590623  0.06388964     0.79200
C107        C  0.74783244  0.43525824  0.06560667     0.81500
C108        C  0.74894572  0.56442897  0.93330951     0.79000
C109        C  0.78663010  0.71314826  0.74940301     0.04000
C110        C  0.78654340  0.74946600  0.71315111     0.04000
C111        C  0.75023714  0.78579045  0.71306997     0.04000
C112        C  0.71399870  0.78576371  0.74945104     0.04000
C113        C  0.71387179  0.74939221  0.78569805     0.04000
C114        C  0.75018534  0.71301415  0.78560249     0.04000
O115        O  0.79078246  0.95097706  0.54808738    -0.70100
O116        O  0.79146355  0.04769386  0.44952440    -0.70300
O117        O  0.79166289  0.04827944  0.54770223    -0.70200
O118        O  0.79058126  0.95058283  0.45005605    -0.70200
O119        O  0.71132557  0.95128689  0.45022731    -0.70100
O120        O  0.71242957  0.04902555  0.54771098    -0.70200
O121        O  0.71225447  0.04920215  0.45058891    -0.70100
O122        O  0.71159738  0.95087159  0.54746209    -0.70300
V123        V  0.78958342  0.99939984  0.49886511     1.35200
V124        V  0.71345661  0.00006862  0.49901472     1.35200
C125        C  0.75107539  0.93426269  0.56435297     0.79200
C126        C  0.75194394  0.06496872  0.43345045     0.79200
C127        C  0.75221742  0.06530369  0.56418423     0.79100
C128        C  0.75076736  0.93450590  0.43353595     0.79000
C129        C  0.78699124  0.28688676  0.25028248     0.04000
C130        C  0.78750096  0.25010107  0.28599528     0.04000
C131        C  0.75097349  0.21405006  0.28620390     0.04000
C132        C  0.71380489  0.21492331  0.25076983     0.04000
C133        C  0.71327488  0.25172036  0.21502849     0.04000
C134        C  0.74985984  0.28778062  0.21478516     0.04000
O135        O  0.04857707  0.45270081  0.28940125    -0.70100
O136        O  0.95085218  0.55028625  0.28864868    -0.70300
O137        O  0.95047122  0.45321915  0.28983742    -0.70200
O138        O  0.04919739  0.54976460  0.28825704    -0.70200
O139        O  0.04775684  0.55003862  0.20925495    -0.70100
O140        O  0.95137756  0.45114585  0.21086825    -0.70200
O141        O  0.95031779  0.54912734  0.20964069    -0.70100
O142        O  0.04864394  0.45218401  0.21046868    -0.70300
V143        V  0.99977211  0.50151227  0.28749950     1.35200
V144        V  0.99950193  0.50065397  0.21159695     1.35200
C145        C  0.06522816  0.43582155  0.25006106     0.79200
C146        C  0.93396096  0.56615525  0.24900891     0.79200
C147        C  0.93454167  0.43547767  0.25060805     0.79100
C148        C  0.06510459  0.56633959  0.24851200     0.79000
C149        C  0.28591118  0.78717510  0.24866598     0.04000
C150        C  0.28559822  0.75079954  0.21236077     0.04000
C151        C  0.24929542  0.71444184  0.21260006     0.04000
C152        C  0.21309837  0.71458743  0.24901181     0.04000
C153        C  0.21307942  0.75106837  0.28515917     0.04000
C154        C  0.24960134  0.78730416  0.28512661     0.04000
O155        O  0.29014352  0.04842273  0.45077023    -0.70100
O156        O  0.28984710  0.95099201  0.54854116    -0.70300
O157        O  0.28961052  0.95039628  0.45129761    -0.70200
O158        O  0.29051558  0.04901632  0.54791812    -0.70200
O159        O  0.21131637  0.04770645  0.54984011    -0.70100
O160        O  0.21040205  0.95246729  0.44986149    -0.70200
O161        O  0.21068100  0.95060705  0.54777482    -0.70100
O162        O  0.21098654  0.04971935  0.45192213    -0.70300
V163        V  0.28849812  0.99969600  0.49962660     1.35200
V164        V  0.21239344  0.00011781  0.49982956     1.35200
C165        C  0.25059075  0.06589128  0.43493843     0.79200
C166        C  0.25017219  0.93413057  0.56472586     0.79200
C167        C  0.24987287  0.93497331  0.43397033     0.79100
C168        C  0.25105759  0.06481427  0.56553516     0.79000
C169        C  0.21424858  0.24895201  0.71410008     0.04000
C170        C  0.25065457  0.21269247  0.71409986     0.04000
C171        C  0.28685650  0.21265773  0.75056180     0.04000
C172        C  0.28690534  0.24900333  0.78674818     0.04000
C173        C  0.25086341  0.28559828  0.78643687     0.04000
C174        C  0.21440786  0.28549171  0.75017181     0.04000
O175        O  0.04875981  0.54733487  0.78989785    -0.70100
O176        O  0.95108199  0.44985367  0.79051609    -0.70300
O177        O  0.04860156  0.44949377  0.79039892    -0.70200
O178        O  0.95133525  0.54775447  0.78995568    -0.70200
O179        O  0.95107225  0.54718498  0.71100019    -0.70100
O180        O  0.04867195  0.44935657  0.71139157    -0.70200
O181        O  0.95022233  0.45021552  0.71150851    -0.70100
O182        O  0.04928147  0.54641799  0.71096179    -0.70300
V183        V  0.99993796  0.49858749  0.78865100     1.35200
V184        V  0.99982788  0.49825974  0.71275434     1.35200
C185        C  0.06566441  0.56343969  0.75035573     0.79200
C186        C  0.93384529  0.43377982  0.75111995     0.79200
C187        C  0.06530233  0.43298075  0.75094463     0.79100
C188        C  0.93463418  0.56412887  0.75039799     0.79000
O189        O  0.54910961  0.28963268  0.95059254    -0.70100
O190        O  0.45161877  0.29006249  0.04851519    -0.70300
O191        O  0.54903441  0.29099321  0.04874088    -0.70200
O192        O  0.45173052  0.28874741  0.95060667    -0.70200
O193        O  0.45167260  0.20975970  0.95235362    -0.70100
O194        O  0.55041521  0.21201731  0.04901962    -0.70200
O195        O  0.45221011  0.21113327  0.04948015    -0.70100
O196        O  0.54998754  0.21065083  0.95196960    -0.70300
V197        V  0.50040364  0.28832631  0.99963390     1.35200
V198        V  0.50106360  0.21243830  0.00067758     1.35200
C199        C  0.56605556  0.25003427  0.93467712     0.79200
C200        C  0.43529739  0.25067308  0.06562124     0.79200
C201        C  0.56626354  0.25184487  0.06548227     0.79100
C202        C  0.43509809  0.24890397  0.93499685     0.79000
O203        O  0.45025380  0.78814797  0.04799195    -0.70100
O204        O  0.54864775  0.78866828  0.95102043    -0.70300
O205        O  0.45032877  0.78850846  0.95109520    -0.70200
O206        O  0.54857907  0.78840411  0.04805802    -0.70200
O207        O  0.54901638  0.70938183  0.04763517    -0.70100
O208        O  0.45020787  0.70956454  0.95120185    -0.70200
O209        O  0.54773124  0.70974088  0.94979306    -0.70100
O210        O  0.45152918  0.70915076  0.04890685    -0.70300
V211        V  0.49947007  0.78689545  0.99955352     1.35200
V212        V  0.49962981  0.71099783  0.99937443     1.35200
C213        C  0.43424074  0.74856134  0.06485681     0.79200
C214        C  0.56482932  0.74927209  0.93380223     0.79200
C215        C  0.43338205  0.74904614  0.93483720     0.79100
C216        C  0.56552925  0.74889646  0.06413440     0.79000
C217        C  0.31477974  0.22998338  0.87134294     0.25300
C218        C  0.32500330  0.24876747  0.82500703    -0.22800
C219        C  0.37164761  0.26708044  0.81493707     0.20200
C220        C  0.40743585  0.26739769  0.85103262     0.25200
C221        C  0.39740051  0.24824864  0.89719084    -0.22800
C222        C  0.35102780  0.22913740  0.90709161     0.20100
F223        F  0.34061478  0.21080095  0.95168727    -0.12700
F224        F  0.26978799  0.21232351  0.88173661    -0.15100
F225        F  0.45219608  0.28557660  0.84072419    -0.15100
F226        F  0.38229901  0.28497404  0.77023469    -0.12700
C227        C  0.18611528  0.37020215  0.73217928     0.25300
C228        C  0.17606801  0.32353589  0.75021718    -0.22800
C229        C  0.12959528  0.31319241  0.76886295     0.20200
C230        C  0.09367247  0.34918198  0.76980732     0.25200
C231        C  0.10342520  0.39554660  0.75100290    -0.22800
C232        C  0.14980422  0.40589365  0.73211863     0.20100
F233        F  0.16014058  0.45087797  0.71470455    -0.12700
F234        F  0.23102572  0.38101826  0.71457133    -0.15100
F235        F  0.04909223  0.33857503  0.78827062    -0.15100
F236        F  0.11927699  0.26833728  0.78656069    -0.12700
C237        C  0.22857753  0.09367241  0.64836548     0.25300
C238        C  0.25131278  0.10238789  0.60350767    -0.22800
C239        C  0.27388983  0.14738126  0.59503268     0.20200
C240        C  0.27282334  0.18362100  0.63066763     0.25200
C241        C  0.25084140  0.17460006  0.67585312    -0.22800
C242        C  0.22909990  0.12927088  0.68464039     0.20100
F243        F  0.20822156  0.11968408  0.72829121    -0.12700
F244        F  0.20690786  0.05025192  0.65735515    -0.15100
F245        F  0.29324661  0.22751756  0.62118601    -0.15100
F246        F  0.29576678  0.15660214  0.55176456    -0.12700
C247        C  0.35004620  0.76806259  0.09193232     0.25300
C248        C  0.39612013  0.74844899  0.10216714    -0.22800
C249        C  0.40558751  0.72900679  0.14832210     0.20200
C250        C  0.36998260  0.73088196  0.18453726     0.25200
C251        C  0.32379709  0.75021855  0.17428466    -0.22800
C252        C  0.31371198  0.76800093  0.12752175     0.20100
F253        F  0.26880134  0.78554179  0.11657057    -0.12700
F254        F  0.34001261  0.78616514  0.04714567    -0.15100
F255        F  0.38027104  0.71334115  0.22947406    -0.15100
F256        F  0.44957600  0.70901776  0.15850907    -0.12700
C257        C  0.26387691  0.81390647  0.37120915     0.25300
C258        C  0.24980779  0.82543887  0.32347497    -0.22800
C259        C  0.23573460  0.87324801  0.31234527     0.20200
C260        C  0.23525879  0.90891151  0.34856799     0.25200
C261        C  0.24962867  0.89737162  0.39611791    -0.22800
C262        C  0.26411977  0.84976277  0.40723245     0.20100
F263        F  0.27774724  0.83793267  0.45315800    -0.12700
F264        F  0.27790397  0.76803109  0.38267301    -0.15100
F265        F  0.22162123  0.95492191  0.33713363    -0.15100
F266        F  0.22205112  0.88515492  0.26647697    -0.12700
C267        C  0.14913571  0.59413632  0.26787193     0.25300
C268        C  0.10303655  0.60386137  0.24805565    -0.22800
C269        C  0.09327318  0.64980186  0.22824572     0.20200
C270        C  0.12868742  0.68623951  0.22972752     0.25200
C271        C  0.17497725  0.67640508  0.24903878    -0.22800
C272        C  0.18526333  0.62994082  0.26745803     0.20100
F273        F  0.23017881  0.61950206  0.28530009    -0.12700
F274        F  0.15939829  0.54963723  0.28653453    -0.15100
F275        F  0.11809309  0.73098354  0.21188406    -0.15100
F276        F  0.04916166  0.65958239  0.20831588    -0.12700
C277        C  0.63119400  0.27671892  0.18387450     0.25300
C278        C  0.67519930  0.25169220  0.17680067    -0.22800
C279        C  0.68334176  0.22701438  0.13295880     0.20200
C280        C  0.64760561  0.22677853  0.09678152     0.25200
C281        C  0.60390352  0.25243920  0.10346663    -0.22800
C282        C  0.59605590  0.27779896  0.14704800     0.20100
F283        F  0.55377493  0.30232207  0.15443657    -0.12700
F284        F  0.62228704  0.29987641  0.22647805    -0.15100
F285        F  0.65609302  0.20248394  0.05472678    -0.15100
F286        F  0.72596449  0.20321902  0.12529142    -0.12700
C287        C  0.81734972  0.36852639  0.27576853     0.25300
C288        C  0.82511812  0.32494583  0.25052410    -0.22800
C289        C  0.86931285  0.31745167  0.22599320     0.20200
C290        C  0.90488984  0.35378277  0.22562455     0.25200
C291        C  0.89722608  0.39729937  0.25111062    -0.22800
C292        C  0.85358009  0.40417585  0.27679915     0.20100
F293        F  0.84558941  0.44592531  0.30177378    -0.12700
F294        F  0.77463794  0.37644128  0.29931819    -0.15100
F295        F  0.94736751  0.34603806  0.20154550    -0.15100
F296        F  0.87792340  0.27496160  0.20251783    -0.12700
C297        C  0.72534330  0.14588480  0.40287969     0.25300
C298        C  0.75202008  0.10293368  0.39582654    -0.22800
C299        C  0.77851577  0.09659033  0.35261690     0.20200
C300        C  0.77747464  0.13237519  0.31652290     0.25200
C301        C  0.75137105  0.17559575  0.32397997    -0.22800
C302        C  0.72578507  0.18236928  0.36757138     0.20100
F303        F  0.70147230  0.22445957  0.37595909    -0.12700
F304        F  0.69993679  0.15298983  0.44456305    -0.15100
F305        F  0.80177300  0.12487832  0.27424768    -0.15100
F306        F  0.80425614  0.05521787  0.34486006    -0.12700
C307        C  0.64211379  0.78210857  0.89871064     0.25300
C308        C  0.60285829  0.74938123  0.89598018    -0.22800
C309        C  0.60035991  0.71657403  0.85692224     0.20200
C310        C  0.63611896  0.71706352  0.82074879     0.25200
C311        C  0.67557268  0.74937620  0.82381212    -0.22800
C312        C  0.67854366  0.78164576  0.86318465     0.20100
F313        F  0.71706332  0.81226969  0.86745866    -0.12700
F314        F  0.64598137  0.81345514  0.93659374    -0.15100
F315        F  0.63201315  0.68636301  0.78240725    -0.15100
F316        F  0.56254483  0.68499067  0.85308581    -0.12700
C317        C  0.82085551  0.63474615  0.71842724     0.25300
C318        C  0.82488870  0.67502422  0.74941391    -0.22800
C319        C  0.86507561  0.67872909  0.78076442     0.20200
C320        C  0.90054634  0.64225505  0.78156982     0.25200
C321        C  0.89685849  0.60216749  0.75015834    -0.22800
C322        C  0.85686273  0.59879414  0.71840323     0.20100
F323        F  0.85190887  0.55991326  0.68846632    -0.12700
F324        F  0.78169161  0.63002886  0.68867738    -0.15100
F325        F  0.93921555  0.64673581  0.81202822    -0.15100
F326        F  0.87008712  0.71790477  0.81026876    -0.12700
C327        C  0.71803236  0.82111493  0.63533594     0.25300
C328        C  0.75028972  0.82404655  0.67484483    -0.22800
C329        C  0.78283196  0.86330031  0.67781567     0.20200
C330        C  0.78367663  0.89874193  0.64139395     0.25200
C331        C  0.75085645  0.89630648  0.60224231    -0.22800
C332        C  0.71780823  0.85733354  0.59964495     0.20100
F333        F  0.68636342  0.85354722  0.56174360    -0.12700
F334        F  0.68717503  0.78283027  0.63106563    -0.15100
F335        F  0.81562339  0.93622553  0.64509978    -0.15100
F336        F  0.81341651  0.86752681  0.71631862    -0.12700
C337        C  0.77927726  0.32140518  0.13556266     0.25300
C338        C  0.74961187  0.32610723  0.17680122    -0.22800
C339        C  0.71924596  0.36690043  0.18145119     0.20200
C340        C  0.71780996  0.40209160  0.14476581     0.25200
C341        C  0.74802369  0.39770991  0.10376625    -0.22800
C342        C  0.77910913  0.35734300  0.09968691     0.20100
F343        F  0.80829142  0.35204974  0.06021771    -0.12700
F344        F  0.80798041  0.28168789  0.12983566    -0.15100
F345        F  0.68808944  0.44117493  0.14997462    -0.15100
F346        F  0.69134678  0.37276238  0.22171716    -0.12700
C347        C  0.77193490  0.68331823  0.86883827     0.25300
C348        C  0.75010074  0.67466581  0.82353135    -0.22800
C349        C  0.72833511  0.62942973  0.81427906     0.20200
C350        C  0.72719326  0.59372200  0.85042569     0.25200
C351        C  0.74947045  0.60218837  0.89555074    -0.22800
C352        C  0.77240866  0.64695278  0.90434722     0.20100
F353        F  0.79421239  0.65577506  0.94774401    -0.12700
F354        F  0.79287361  0.72693672  0.87850025    -0.15100
F355        F  0.70546440  0.55042163  0.84102995    -0.15100
F356        F  0.70817723  0.61998010  0.77025250    -0.12700
C357        C  0.21716233  0.32242275  0.86250551     0.25300
C358        C  0.25112939  0.32389569  0.82444007    -0.22800
C359        C  0.28551738  0.36164053  0.82278070     0.20200
C360        C  0.28622549  0.39723967  0.85901949     0.25200
C361        C  0.25159871  0.39631955  0.89665831    -0.22800
C362        C  0.21693573  0.35872224  0.89799047     0.20100
F363        F  0.18375245  0.35634728  0.93448908    -0.12700
F364        F  0.18463881  0.28541651  0.86559066    -0.15100
F365        F  0.31977853  0.43340878  0.85652785    -0.15100
F366        F  0.31798112  0.36429138  0.78569425    -0.12700
C367        C  0.21456019  0.64015527  0.10176453     0.25300
C368        C  0.24957358  0.60288998  0.10299676    -0.22800
C369        C  0.28427118  0.60226329  0.14057979     0.20200
C370        C  0.28359951  0.63804033  0.17662370     0.25200
C371        C  0.24933207  0.67587212  0.17473458    -0.22800
C372        C  0.21499279  0.67682710  0.13690884     0.20100
F373        F  0.18228761  0.71364948  0.13370714    -0.12700
F374        F  0.18085757  0.64186906  0.06567823    -0.15100
F375        F  0.31599193  0.63544661  0.21378077    -0.15100
F376        F  0.31790326  0.56618532  0.14320168    -0.12700
C377        C  0.39986415  0.14070481  0.71864971     0.25300
C378        C  0.39731859  0.10221228  0.75210731    -0.22800
C379        C  0.35849851  0.10037436  0.78536905     0.20200
C380        C  0.32212553  0.13590780  0.78431126     0.25200
C381        C  0.32487559  0.17440399  0.75098639    -0.22800
C382        C  0.36424823  0.17691915  0.71859372     0.20100
F383        F  0.36853828  0.21487641  0.68744080    -0.12700
F384        F  0.43763713  0.14397989  0.68696138    -0.15100
F385        F  0.28396922  0.13262173  0.81549671    -0.15100
F386        F  0.35502496  0.06342091  0.81785338    -0.12700
C387        C  0.59509102  0.85126943  0.72661996     0.25300
C388        C  0.60397589  0.89631702  0.74875820    -0.22800
C389        C  0.64933057  0.90528622  0.77059512     0.20200
C390        C  0.68544602  0.86948477  0.77023581     0.25200
C391        C  0.67597055  0.82391092  0.74940186    -0.22800
C392        C  0.63055108  0.81489932  0.72779523     0.20100
F393        F  0.62075443  0.77095444  0.70767862    -0.12700
F394        F  0.55172421  0.84223689  0.70476023    -0.15100
F395        F  0.72961381  0.87911929  0.79025283    -0.15100
F396        F  0.65898510  0.94913019  0.79103880    -0.12700
C397        C  0.32130972  0.78360466  0.86274601     0.25300
C398        C  0.32290463  0.74950988  0.82488417    -0.22800
C399        C  0.36063513  0.71511925  0.82355691     0.20200
C400        C  0.39609993  0.71444071  0.85989446     0.25200
C401        C  0.39508284  0.74903207  0.89740198    -0.22800
C402        C  0.35744016  0.78369557  0.89856495     0.20100
F403        F  0.35489554  0.81672569  0.93510618    -0.12700
F404        F  0.28451313  0.81647571  0.86512263    -0.15100
F405        F  0.43234333  0.68094787  0.85757072    -0.15100
F406        F  0.36365655  0.68281943  0.78646221    -0.12700
C407        C  0.14101607  0.60075733  0.71565572     0.25300
C408        C  0.10330157  0.60155103  0.75021694    -0.22800
C409        C  0.10151754  0.63940179  0.78445031     0.20200
C410        C  0.13635450  0.67636817  0.78351129     0.25200
C411        C  0.17447430  0.67506339  0.74957159    -0.22800
C412        C  0.17676140  0.63692871  0.71581455     0.20100
F413        F  0.21396090  0.63450528  0.68342808    -0.12700
F414        F  0.14406501  0.56418683  0.68270195    -0.15100
F415        F  0.13255951  0.71384388  0.81529963    -0.15100
F416        F  0.06522375  0.64134654  0.81791238    -0.12700
C417        C  0.21360323  0.89630887  0.63878887     0.25300
C418        C  0.24986089  0.89626430  0.60267914    -0.22800
C419        C  0.28575510  0.85979739  0.60324495     0.20200
C420        C  0.28506379  0.82373111  0.63902963     0.25200
C421        C  0.24917701  0.82418705  0.67538247    -0.22800
C422        C  0.21362704  0.86087278  0.67515212     0.20100
F423        F  0.17942311  0.86282829  0.71068673    -0.12700
F424        F  0.17899940  0.93155081  0.63974784    -0.15100
F425        F  0.31908043  0.78796185  0.63793809    -0.15100
F426        F  0.32066721  0.85826973  0.56833977    -0.12700
C427        C  0.26912226  0.62927159  0.81475056     0.25300
C428        C  0.24863780  0.67503732  0.82433415    -0.22800
C429        C  0.22862423  0.68448666  0.87032711     0.20200
C430        C  0.22836139  0.64831636  0.90603405     0.25200
C431        C  0.24993815  0.60300326  0.89679771    -0.22800
C432        C  0.27074839  0.59383336  0.85113887     0.20100
F433        F  0.29157952  0.55014525  0.84152729    -0.12700
F434        F  0.28787445  0.61916071  0.77026455    -0.15100
F435        F  0.20810725  0.65782710  0.95001454    -0.15100
F436        F  0.20916679  0.72867210  0.88044551    -0.12700
C437        C  0.37158209  0.81253884  0.73749278     0.25300
C438        C  0.32353857  0.82426554  0.75064349    -0.22800
C439        C  0.31223351  0.87219281  0.76415975     0.20200
C440        C  0.34857397  0.90786291  0.76462125     0.25200
C441        C  0.39651595  0.89598382  0.75150468    -0.22800
C442        C  0.40780605  0.84821919  0.73787116     0.20100
F443        F  0.45403552  0.83609231  0.72540457    -0.12700
F444        F  0.38319639  0.76663399  0.72374467    -0.15100
F445        F  0.33691590  0.95415147  0.77705053    -0.15100
F446        F  0.26608957  0.88423586  0.77717643    -0.12700
C447        C  0.10275021  0.78815617  0.35927887     0.25300
C448        C  0.10232816  0.75227485  0.39567717    -0.22800
C449        C  0.13845342  0.71606392  0.39549525     0.20200
C450        C  0.17482029  0.71618568  0.36003361     0.25200
C451        C  0.17464767  0.75138355  0.32314950    -0.22800
C452        C  0.13822917  0.78721391  0.32283017     0.20100
F453        F  0.13690716  0.82103413  0.28696726    -0.12700
F454        F  0.06804501  0.82329352  0.35820633    -0.15100
F455        F  0.21085889  0.68252885  0.36226602    -0.15100
F456        F  0.13943470  0.68138838  0.43056153    -0.12700
C457        C  0.86996230  0.77141605  0.68428659     0.25300
C458        C  0.82466262  0.74963648  0.67513116    -0.22800
C459        C  0.81526340  0.72905998  0.62943357     0.20200
C460        C  0.85123066  0.72945491  0.59349857     0.25200
C461        C  0.89637687  0.75166384  0.60251958    -0.22800
C462        C  0.90530996  0.77322209  0.64784417     0.20100
F463        F  0.94855445  0.79521955  0.65704450    -0.12700
F464        F  0.87969008  0.79122307  0.72839272    -0.15100
F465        F  0.84161290  0.70942686  0.54945551    -0.15100
F466        F  0.77125624  0.70872859  0.61974885    -0.12700
C467        C  0.18526778  0.73224658  0.62849117     0.25300
C468        C  0.17451343  0.74959346  0.67525594    -0.22800
C469        C  0.12756189  0.76704644  0.68548414     0.20200
C470        C  0.09213158  0.76825920  0.64904070     0.25200
C471        C  0.10272748  0.75056567  0.60243130    -0.22800
C472        C  0.14930243  0.73201858  0.59245463     0.20100
F473        F  0.16012954  0.71466844  0.54757075    -0.12700
F474        F  0.23050997  0.71532974  0.61797453    -0.15100
F475        F  0.04718343  0.78584723  0.65944955    -0.15100
F476        F  0.11631945  0.78342620  0.73062525    -0.12700
C477        C  0.59357648  0.73210110  0.14827987     0.25300
C478        C  0.60371311  0.74900624  0.10130218    -0.22800
C479        C  0.65041588  0.76646598  0.09016385     0.20200
C480        C  0.68676733  0.76684167  0.12574813     0.25200
C481        C  0.67627930  0.75099213  0.17312069    -0.22800
C482        C  0.62946216  0.73374836  0.18421257     0.20100
F483        F  0.61881303  0.71803845  0.22973686    -0.12700
F484        F  0.54871657  0.71477400  0.15949039    -0.15100
F485        F  0.73202993  0.78305267  0.11422758    -0.15100
F486        F  0.66092532  0.78223680  0.04461929    -0.12700
C487        C  0.81431954  0.63065865  0.26855927     0.25300
C488        C  0.82445709  0.67657597  0.24880344    -0.22800
C489        C  0.87058168  0.68591817  0.22891049     0.20200
C490        C  0.90592213  0.64942088  0.22795559     0.25200
C491        C  0.89621997  0.60388172  0.24869764    -0.22800
C492        C  0.85033430  0.59474266  0.26927649     0.20100
F493        F  0.84012199  0.55068859  0.28892274    -0.12700
F494        F  0.76961144  0.62081259  0.28721885    -0.15100
F495        F  0.94991366  0.65875747  0.20757260    -0.15100
F496        F  0.88112165  0.73026995  0.21008936    -0.12700
C497        C  0.76544590  0.90839898  0.34823076     0.25300
C498        C  0.75031010  0.89706922  0.39559325    -0.22800
C499        C  0.73468477  0.84979124  0.40646688     0.20200
C500        C  0.73468606  0.81399538  0.37042454     0.25200
C501        C  0.74967527  0.82530927  0.32292516    -0.22800
C502        C  0.76486589  0.87278157  0.31201107     0.20100
F503        F  0.77949608  0.88439506  0.26635707    -0.12700
F504        F  0.77998545  0.95414188  0.33696952    -0.15100
F505        F  0.71958733  0.76841125  0.38165052    -0.15100
F506        F  0.72019101  0.83820152  0.45217791    -0.12700
C507        C  0.71569462  0.63930922  0.17524931     0.25300
C508        C  0.75057079  0.67658959  0.17366112    -0.22800
C509        C  0.78476407  0.67745875  0.13573744     0.20200
C510        C  0.78465496  0.64103094  0.10034608     0.25200
C511        C  0.74927038  0.60408714  0.10146994    -0.22800
C512        C  0.71447653  0.60379772  0.13896720     0.20100
F513        F  0.68017269  0.56832277  0.14127038    -0.12700
F514        F  0.68310769  0.63713339  0.21225841    -0.15100
F515        F  0.81819809  0.64268446  0.06413169    -0.15100
F516        F  0.81772704  0.71405970  0.13256152    -0.12700
C517        C  0.82158865  0.71842186  0.36214029     0.25300
C518        C  0.82422233  0.75111381  0.32310381    -0.22800
C519        C  0.86254333  0.78481786  0.32104656     0.20200
C520        C  0.89774223  0.78603258  0.35776122     0.25200
C521        C  0.89549426  0.75292432  0.39658288    -0.22800
C522        C  0.85713894  0.71909971  0.39848757     0.20100
F523        F  0.85332772  0.68765387  0.43630410    -0.12700
F524        F  0.78407056  0.68647028  0.36546082    -0.15100
F525        F  0.93483044  0.81852695  0.35462088    -0.15100
F526        F  0.86598113  0.81622546  0.28318615    -0.12700
C527        C  0.36048260  0.82537932  0.28495610     0.25300
C528        C  0.32444373  0.82514272  0.24872335    -0.22800
C529        C  0.32443228  0.86178857  0.21325497     0.20200
C530        C  0.36042826  0.89768648  0.21344589     0.25200
C531        C  0.39622245  0.89834294  0.25002443    -0.22800
C532        C  0.39563340  0.86213998  0.28610729     0.20100
F533        F  0.42982518  0.86159989  0.32177112    -0.12700
F534        F  0.36173257  0.78977249  0.31904044    -0.15100
F535        F  0.35934124  0.93273213  0.17875278    -0.15100
F536        F  0.28885814  0.86341894  0.17905760    -0.12700
C537        C  0.59821289  0.14589002  0.28007672     0.25300
C538        C  0.60339451  0.10452007  0.25063479    -0.22800
C539        C  0.64511250  0.09941211  0.22152516     0.20200
C540        C  0.68139522  0.13504484  0.22220016     0.25200
C541        C  0.67565443  0.17685148  0.25077058    -0.22800
C542        C  0.63378098  0.18223448  0.27951515     0.20100
F543        F  0.62733669  0.22276978  0.30682462    -0.12700
F544        F  0.55812400  0.15162009  0.30838542    -0.15100
F545        F  0.72234934  0.12867111  0.19532847    -0.15100
F546        F  0.65138106  0.05919316  0.19367435    -0.12700
C547        C  0.67478897  0.86178231  0.21182212     0.25300
C548        C  0.67537121  0.82554053  0.24772090    -0.22800
C549        C  0.63930219  0.82555001  0.28388968     0.20200
C550        C  0.60378552  0.86189915  0.28484404     0.25200
C551        C  0.60289284  0.89798296  0.24869195    -0.22800
C552        C  0.63838630  0.89728125  0.21182308     0.20100
F553        F  0.63871269  0.93181317  0.17659480    -0.12700
F554        F  0.71001158  0.86325801  0.17726161    -0.15100
F555        F  0.56943429  0.86099871  0.32032238    -0.15100
F556        F  0.63821662  0.78995780  0.31798087    -0.12700
C557        C  0.63046102  0.27091497  0.81538974     0.25300
C558        C  0.67521106  0.24774721  0.82377661    -0.22800
C559        C  0.68408675  0.22559889  0.86885292     0.20200
C560        C  0.64808235  0.22562272  0.90476518     0.25200
C561        C  0.60367831  0.24963929  0.89674450    -0.22800
C562        C  0.59532087  0.27284411  0.85208710     0.20100
F563        F  0.55278652  0.29651431  0.84373066    -0.12700
F564        F  0.62109898  0.29198248  0.77179005    -0.15100
F565        F  0.65705432  0.20348479  0.94790935    -0.15100
F566        F  0.72770299  0.20427004  0.87808650    -0.12700
C567        C  0.86794953  0.31584256  0.77353911     0.25300
C568        C  0.82314919  0.32462021  0.75060092    -0.22800
C569        C  0.81446092  0.36979411  0.72858422     0.20200
C570        C  0.85085667  0.40533042  0.72822560     0.25200
C571        C  0.89560004  0.39658544  0.75138130    -0.22800
C572        C  0.90365601  0.35197818  0.77469575     0.20100
F573        F  0.94657676  0.34304358  0.79748890    -0.12700
F574        F  0.87698923  0.27224508  0.79472901    -0.15100
F575        F  0.84209289  0.44867774  0.70637511    -0.15100
F576        F  0.77082956  0.37929362  0.70737381    -0.12700
C577        C  0.73158929  0.18492760  0.62833674     0.25300
C578        C  0.75131307  0.17531051  0.67443580    -0.22800
C579        C  0.77201752  0.12961241  0.68384785     0.20200
C580        C  0.77323543  0.09403775  0.64752859     0.25200
C581        C  0.75246231  0.10327145  0.60182542    -0.22800
C582        C  0.73145665  0.14884631  0.59251348     0.20100
F583        F  0.71167108  0.15865596  0.54840061    -0.12700
F584        F  0.71225464  0.22917035  0.61822532    -0.15100
F585        F  0.79351656  0.05013703  0.65729887    -0.15100
F586        F  0.79118063  0.11961714  0.72819485    -0.12700
C587        C  0.77877239  0.35509216  0.90117725     0.25300
C588        C  0.74730843  0.39520443  0.89732199    -0.22800
C589        C  0.71594256  0.39873271  0.85709091     0.20200
C590        C  0.71697836  0.36333285  0.82063877     0.25200
C591        C  0.74828762  0.32319892  0.82462281    -0.22800
C592        C  0.77874948  0.31899969  0.86539096     0.20100
F593        F  0.80817309  0.27973358  0.87063919    -0.12700
F594        F  0.80855287  0.35023092  0.94027635    -0.15100
F595        F  0.68782887  0.36844696  0.78114240    -0.15100
F596        F  0.68544396  0.43727206  0.85233743    -0.12700
C597        C  0.63710995  0.17645607  0.71643195     0.25300
C598        C  0.67647223  0.17368523  0.74886522    -0.22800
C599        C  0.67968659  0.13440025  0.78119704     0.20200
C600        C  0.64324458  0.09895165  0.78204241     0.25200
C601        C  0.60389220  0.10153629  0.74944411    -0.22800
C602        C  0.60135346  0.14028826  0.71626972     0.20100
F603        F  0.56342783  0.14391895  0.68478722    -0.12700
F604        F  0.63309398  0.21452916  0.68536266    -0.15100
F605        F  0.64709393  0.06136515  0.81375086    -0.15100
F606        F  0.71843887  0.13015179  0.81152646    -0.12700
C607        C  0.35968246  0.21624492  0.10267089     0.25300
C608        C  0.39738300  0.25082947  0.10354662    -0.22800
C609        C  0.39853159  0.28559153  0.14095548     0.20200
C610        C  0.36293491  0.28529688  0.17728264     0.25200
C611        C  0.32495958  0.25115426  0.17599473    -0.22800
C612        C  0.32333869  0.21689290  0.13824426     0.20100
F613        F  0.28613311  0.18453664  0.13549883    -0.12700
F614        F  0.35723410  0.18274634  0.06654672    -0.15100
F615        F  0.36577174  0.31797537  0.21408664    -0.15100
F616        F  0.43494384  0.31891857  0.14312235    -0.12700
C617        C  0.10282607  0.36099690  0.21497447     0.25300
C618        C  0.10310762  0.39787701  0.25032525    -0.22800
C619        C  0.13985800  0.39813757  0.28594433     0.20200
C620        C  0.17615970  0.36253932  0.28571570     0.25200
C621        C  0.17567751  0.32563314  0.25053926    -0.22800
C622        C  0.13854224  0.32483494  0.21545673     0.20100
F623        F  0.13641866  0.28847062  0.18223804    -0.12700
F624        F  0.06712419  0.35912869  0.18085756    -0.15100
F625        F  0.21215458  0.36431327  0.31949991    -0.15100
F626        F  0.14142430  0.43365962  0.32012409    -0.12700
C627        C  0.28601243  0.17746865  0.36277976     0.25300
C628        C  0.25094882  0.17714193  0.32559043    -0.22800
C629        C  0.21543831  0.14042289  0.32486310     0.20200
C630        C  0.21477920  0.10468910  0.36095490     0.25200
C631        C  0.25060864  0.10425225  0.39749511    -0.22800
C632        C  0.28632177  0.14089490  0.39804323     0.20100
F633        F  0.32052793  0.14221069  0.43367452    -0.12700
F634        F  0.31931444  0.21380698  0.36548878    -0.15100
F635        F  0.17987194  0.06976370  0.35945154    -0.15100
F636        F  0.18162936  0.13903162  0.28889557    -0.12700
C637        C  0.23306216  0.35022683  0.09272333     0.25300
C638        C  0.25099964  0.39688899  0.10283547    -0.22800
C639        C  0.26844037  0.40768372  0.14953722     0.20200
C640        C  0.26745914  0.37227573  0.18596891     0.25200
C641        C  0.25016025  0.32536242  0.17572437    -0.22800
C642        C  0.23321751  0.31445868  0.12881033     0.20100
F643        F  0.21648592  0.26928260  0.11820027    -0.12700
F644        F  0.21632092  0.33914461  0.04764386    -0.15100
F645        F  0.28371479  0.38353416  0.23116544    -0.15100
F646        F  0.28538633  0.45282133  0.16002871    -0.12700
C647        C  0.35083514  0.09518826  0.23164548     0.25300
C648        C  0.39703392  0.10483194  0.25125450    -0.22800
C649        C  0.40724997  0.15088988  0.27056498     0.20200
C650        C  0.37175267  0.18726226  0.26960979     0.25200
C651        C  0.32522082  0.17734635  0.25087108    -0.22800
C652        C  0.31483200  0.13105911  0.23216136     0.20100
F653        F  0.26993455  0.12088548  0.21411095    -0.12700
F654        F  0.34041304  0.05074400  0.21294487    -0.15100
F655        F  0.38253697  0.23204490  0.28724458    -0.15100
F656        F  0.45191662  0.16085773  0.28927576    -0.12700
C657        C  0.85579228  0.27837430  0.40199308     0.25300
C658        C  0.89756100  0.24936101  0.39678053    -0.22800
C659        C  0.90315423  0.22061896  0.35498834     0.20200
C660        C  0.86781033  0.22159283  0.31842838     0.25200
C661        C  0.82572071  0.24999253  0.32404331    -0.22800
C662        C  0.81972672  0.27808360  0.36614693     0.20100
F663        F  0.77872115  0.30486142  0.37260959    -0.12700
F664        F  0.84927670  0.30577251  0.44248526    -0.15100
F665        F  0.87472339  0.19508621  0.27744628    -0.15100
F666        F  0.94344236  0.19262607  0.34906726    -0.12700
C667        C  0.10094239  0.21590977  0.64277119     0.25300
C668        C  0.10398567  0.24817620  0.60331811    -0.22800
C669        C  0.14342286  0.28063598  0.60041113     0.20200
C670        C  0.17942600  0.28065772  0.63633576     0.25200
C671        C  0.17605388  0.24879987  0.67597397    -0.22800
C672        C  0.13648660  0.21662395  0.67914674     0.20100
F673        F  0.13197322  0.18643886  0.71786037    -0.12700
F674        F  0.06275950  0.18479240  0.64684266    -0.15100
F675        F  0.21784697  0.31144900  0.63231614    -0.15100
F676        F  0.14776671  0.31134515  0.56206001    -0.12700
C677        C  0.86413779  0.21820863  0.67903938     0.25300
C678        C  0.82483167  0.25065029  0.67568605    -0.22800
C679        C  0.82186614  0.28253927  0.63602026     0.20200
C680        C  0.85800328  0.28222584  0.60025680     0.25200
C681        C  0.89690169  0.24911508  0.60309259    -0.22800
C682        C  0.89955085  0.21687528  0.64258056     0.20100
F683        F  0.93716688  0.18508628  0.64654108    -0.12700
F684        F  0.86829916  0.18810454  0.71785919    -0.15100
F685        F  0.85421045  0.31319807  0.56204621    -0.15100
F686        F  0.78357248  0.31340149  0.63157876    -0.12700
C687        C  0.09248932  0.23571343  0.34985059     0.25300
C688        C  0.10386789  0.24937201  0.39759639    -0.22800
C689        C  0.15139842  0.26411329  0.40916859     0.20200
C690        C  0.18743349  0.26482426  0.37330426     0.25200
C691        C  0.17608312  0.25136856  0.32537772    -0.22800
C692        C  0.12834724  0.23695501  0.31383932     0.20100
F693        F  0.11674424  0.22354069  0.26782113    -0.12700
F694        F  0.04648002  0.22197141  0.33804965    -0.15100
F695        F  0.23331858  0.27893191  0.38515616    -0.15100
F696        F  0.16294358  0.27711114  0.45533876    -0.12700
loop_ 
_geom_bond_atom_site_label_1 
_geom_bond_atom_site_label_2 
_geom_bond_distance 
_geom_bond_site_symmetry_2 
_ccdc_geom_bond_type 
O1            V9   1.896       .  S
O1           C11   1.262       .  A
O2            V9   1.896   1_655  S
O2           C12   1.263       .  A
O3            V9   1.898       .  S
O3           C13   1.264       .  A
O4            V9   1.898   1_655  S
O4           C14   1.264       .  A
O5           V10   1.898   1_655  S
O5           C14   1.264       .  A
O6           V10   1.898       .  S
O6           C13   1.264       .  A
O7           V10   1.900   1_655  S
O7           C12   1.265       .  A
O8           V10   1.900       .  S
O8           C11   1.263       .  A
V9           V10   2.090       .  T
C11         C688   1.464       .  S
C12         C681   1.472       .  S
C13         C668   1.472       .  S
C14         C658   1.469       .  S
C15         C621   1.485       .  S
C15          C16   1.414       .  A
C15          C20   1.414       .  A
C16         C691   1.485       .  S
C16          C17   1.413       .  A
C17         C628   1.488       .  S
C17          C18   1.413       .  A
C18         C651   1.481       .  S
C18          C19   1.413       .  A
C19         C611   1.486       .  S
C19          C20   1.412       .  A
C20         C641   1.486       .  S
C21         C678   1.483       .  S
C21          C22   1.413       .  A
C21          C26   1.412       .  A
C22         C568   1.480       .  S
C22          C23   1.411       .  A
C23         C591   1.487       .  S
C23          C24   1.411       .  A
C24         C558   1.482       .  S
C24          C25   1.413       .  A
C25         C598   1.483       .  S
C25          C26   1.413       .  A
C26         C578   1.487       .  S
O27          V35   1.899   1_565  S
O27          C37   1.265       .  A
O28          V35   1.899       .  S
O28          C38   1.263       .  A
O29          V35   1.899   1_565  S
O29          C39   1.264       .  A
O30          V35   1.898       .  S
O30          C40   1.263       .  A
O31          V36   1.899       .  S
O31          C40   1.264       .  A
O32          V36   1.898   1_565  S
O32          C39   1.264       .  A
O33          V36   1.897       .  S
O33          C38   1.263       .  A
O34          V36   1.896   1_565  S
O34          C37   1.263       .  A
V35          V36   2.089       .  T
C37         C551   1.475       .  S
C38         C648   1.464       .  S
C39         C531   1.476       .  S
C40         C538   1.470       .  S
C41         C548   1.487       .  S
C41          C42   1.414       .  A
C41          C46   1.414       .  A
C42         C481   1.483       .  S
C42          C43   1.412       .  A
C43         C508   1.487       .  S
C43          C44   1.412       .  A
C44         C488   1.481       .  S
C44          C45   1.412       .  A
C45         C518   1.484       .  S
C45          C46   1.412       .  A
C46         C501   1.487       .  S
O47          V55   1.899       .  S
O47          C57   1.263       .  A
O48          V55   1.899   1_455  S
O48          C58   1.264       .  A
O49          V55   1.901       .  S
O49          C59   1.265       .  A
O50          V55   1.901   1_455  S
O50          C60   1.264       .  A
O51          V56   1.899   1_455  S
O51          C60   1.263       .  A
O52          V56   1.896       .  S
O52          C59   1.263       .  A
O53          V56   1.897   1_455  S
O53          C58   1.264       .  A
O54          V56   1.897       .  S
O54          C57   1.263       .  A
V55          V56   2.089       .  T
C57         C461   1.466       .  S
C58         C448   1.474       .  S
C59         C521   1.473       .  S
C60         C471   1.468       .  S
C61         C411   1.483       .  S
C61          C62   1.413       .  A
C61          C66   1.411       .  A
C62         C468   1.484       .  S
C62          C63   1.414       .  A
C63         C421   1.487       .  S
C63          C64   1.414       .  A
C64         C438   1.487       .  S
C64          C65   1.414       .  A
C65         C398   1.483       .  S
C65          C66   1.412       .  A
C66         C428   1.487       .  S
O67          V75   1.895   1_545  S
O67          C77   1.263       .  A
O68          V75   1.898       .  S
O68          C78   1.263       .  A
O69          V75   1.899       .  S
O69          C79   1.263       .  A
O70          V75   1.898   1_545  S
O70          C80   1.264       .  A
O71          V76   1.899   1_545  S
O71          C80   1.264       .  A
O72          V76   1.901       .  S
O72          C79   1.264       .  A
O73          V76   1.898       .  S
O73          C78   1.263       .  A
O74          V76   1.899   1_545  S
O74          C77   1.264       .  A
V75          V76   2.089       .  T
C77         C378   1.471       .  S
C78         C388   1.466       .  S
C79         C441   1.467       .  S
C80         C601   1.472       .  S
O81          V89   1.899   1_554  S
O81          C91   1.264       .  A
O82          V89   1.900       .  S
O82          C92   1.264       .  A
O83          V89   1.901       .  S
O83          C93   1.264       .  A
O84          V89   1.901   1_554  S
O84          C94   1.264       .  A
O85          V90   1.899   1_554  S
O85          C94   1.263       .  A
O86          V90   1.899       .  S
O86          C93   1.263       .  A
O87          V90   1.898       .  S
O87          C92   1.264       .  A
O88          V90   1.899   1_554  S
O88          C91   1.264       .  A
V89          V90   2.089       .  T
C91         C368   1.474       .  S
C92         C361   1.474       .  S
C93         C431   1.469       .  S
C94         C638   1.468       .  S
O95         V103   1.900       .  S
O95         C105   1.264       .  A
O96         V103   1.899   1_554  S
O96         C106   1.264       .  A
O97         V103   1.897   1_554  S
O97         C107   1.264       .  A
O98         V103   1.899       .  S
O98         C108   1.263       .  A
O99         V104   1.902       .  S
O99         C108   1.264       .  A
O100        V104   1.903   1_554  S
O100        C107   1.265       .  A
O101        V104   1.899   1_554  S
O101        C106   1.264       .  A
O102        V104   1.901       .  S
O102        C105   1.264       .  A
V103        V104   2.089       .  T
C105        C588   1.475       .  S
C106        C511   1.475       .  S
C107        C341   1.474       .  S
C108        C351   1.470       .  S
C109        C318   1.485       .  S
C109        C110   1.413       .  A
C109        C114   1.412       .  A
C110        C458   1.480       .  S
C110        C111   1.412       .  A
C111        C328   1.489       .  S
C111        C112   1.412       .  A
C112        C391   1.481       .  S
C112        C113   1.414       .  A
C113        C311   1.485       .  S
C113        C114   1.413       .  A
C114        C348   1.485       .  S
O115        V123   1.901       .  S
O115        C125   1.265       .  A
O116        V123   1.901   1_545  S
O116        C126   1.264       .  A
O117        V123   1.903   1_545  S
O117        C127   1.264       .  A
O118        V123   1.901       .  S
O118        C128   1.263       .  A
O119        V124   1.900   1_565  S
O119        C128   1.264       .  A
O120        V124   1.901       .  S
O120        C127   1.264       .  A
O121        V124   1.899       .  S
O121        C126   1.264       .  A
O122        V124   1.901   1_565  S
O122        C125   1.264       .  A
V123        V124   2.089   1_565  T
C125        C331   1.476       .  S
C126        C298   1.471       .  S
C127        C581   1.472       .  S
C128        C498   1.467       .  S
C129        C288   1.481       .  S
C129        C130   1.411       .  A
C129        C134   1.412       .  A
C130        C661   1.482       .  S
C130        C131   1.411       .  A
C131        C301   1.484       .  S
C131        C132   1.411       .  A
C132        C541   1.481       .  S
C132        C133   1.412       .  A
C133        C278   1.483       .  S
C133        C134   1.412       .  A
C134        C338   1.485       .  S
O135        V143   1.898   1_455  S
O135        C145   1.264       .  A
O136        V143   1.899       .  S
O136        C146   1.263       .  A
O137        V143   1.898       .  S
O137        C147   1.263       .  A
O138        V143   1.898   1_455  S
O138        C148   1.263       .  A
O139        V144   1.899   1_455  S
O139        C148   1.263       .  A
O140        V144   1.898       .  S
O140        C147   1.264       .  A
O141        V144   1.899       .  S
O141        C146   1.263       .  A
O142        V144   1.898   1_455  S
O142        C145   1.264       .  A
V143        V144   2.090       .  T
C145        C618   1.474       .  S
C146        C491   1.467       .  S
C147        C291   1.467       .  S
C148        C268   1.466       .  S
C149        C528   1.487       .  S
C149        C150   1.415       .  A
C149        C154   1.415       .  A
C150        C251   1.483       .  S
C150        C151   1.412       .  A
C151        C371   1.488       .  S
C151        C152   1.411       .  A
C152        C271   1.483       .  S
C152        C153   1.414       .  A
C153        C451   1.486       .  S
C153        C154   1.414       .  A
C154        C258   1.489       .  S
O155        V163   1.900   1_545  S
O155        C165   1.265       .  A
O156        V163   1.901       .  S
O156        C166   1.265       .  A
O157        V163   1.901       .  S
O157        C167   1.264       .  A
O158        V163   1.901   1_545  S
O158        C168   1.264       .  A
O159        V164   1.901       .  S
O159        C168   1.264       .  A
O160        V164   1.902   1_565  S
O160        C167   1.264       .  A
O161        V164   1.898   1_565  S
O161        C166   1.264       .  A
O162        V164   1.899       .  S
O162        C165   1.264       .  A
V163        V164   2.089   1_565  T
C165        C631   1.476       .  S
C166        C418   1.476       .  S
C167        C261   1.469       .  S
C168        C238   1.471       .  S
C169        C671   1.483       .  S
C169        C170   1.412       .  A
C169        C174   1.414       .  A
C170        C241   1.486       .  S
C170        C171   1.412       .  A
C171        C381   1.483       .  S
C171        C172   1.412       .  A
C172        C218   1.484       .  S
C172        C173   1.412       .  A
C173        C358   1.485       .  S
C173        C174   1.413       .  A
C174        C228   1.485       .  S
O175        V183   1.896   1_455  S
O175        C185   1.264       .  A
O176        V183   1.897       .  S
O176        C186   1.263       .  A
O177        V183   1.901   1_455  S
O177        C187   1.264       .  A
O178        V183   1.901       .  S
O178        C188   1.264       .  A
O179        V184   1.899       .  S
O179        C188   1.264       .  A
O180        V184   1.900   1_455  S
O180        C187   1.264       .  A
O181        V184   1.898       .  S
O181        C186   1.263       .  A
O182        V184   1.898   1_455  S
O182        C185   1.264       .  A
V183        V184   2.089       .  T
C185        C408   1.472       .  S
C186        C571   1.466       .  S
C187        C231   1.469       .  S
C188        C321   1.474       .  S
O189        V197   1.900       .  S
O189        C199   1.264       .  A
O190        V197   1.899   1_554  S
O190        C200   1.264       .  A
O191        V197   1.901   1_554  S
O191        C201   1.264       .  A
O192        V197   1.899       .  S
O192        C202   1.263       .  A
O193        V198   1.900   1_556  S
O193        C202   1.263       .  A
O194        V198   1.898       .  S
O194        C201   1.264       .  A
O195        V198   1.899       .  S
O195        C200   1.264       .  A
O196        V198   1.898   1_556  S
O196        C199   1.264       .  A
V197        V198   2.089   1_556  T
C199        C561   1.469       .  S
C200        C608   1.474       .  S
C201        C281   1.470       .  S
C202        C221   1.467       .  S
O203        V211   1.899   1_554  S
O203        C213   1.263       .  A
O204        V211   1.900       .  S
O204        C214   1.264       .  A
O205        V211   1.897       .  S
O205        C215   1.264       .  A
O206        V211   1.897   1_554  S
O206        C216   1.263       .  A
O207        V212   1.898   1_554  S
O207        C216   1.263       .  A
O208        V212   1.897       .  S
O208        C215   1.264       .  A
O209        V212   1.899       .  S
O209        C214   1.264       .  A
O210        V212   1.899   1_554  S
O210        C213   1.263       .  A
V211        V212   2.089       .  T
C213        C248   1.466       .  S
C214        C308   1.474       .  S
C215        C401   1.472       .  S
C216        C478   1.464       .  S
C217        C218   1.405       .  A
C217        C222   1.399       .  A
C217        F224   1.357       .  S
C218        C219   1.403       .  A
C219        C220   1.397       .  A
C219        F226   1.357       .  S
C220        C221   1.403       .  A
C220        F225   1.356       .  S
C221        C222   1.404       .  A
C222        F223   1.358       .  S
C227        C228   1.405       .  A
C227        C232   1.400       .  A
C227        F234   1.357       .  S
C228        C229   1.404       .  A
C229        C230   1.398       .  A
C229        F236   1.357       .  S
C230        C231   1.403       .  A
C230        F235   1.357       .  S
C231        C232   1.404       .  A
C232        F233   1.358       .  S
C237        C238   1.404       .  A
C237        C242   1.399       .  A
C237        F244   1.358       .  S
C238        C239   1.404       .  A
C239        C240   1.400       .  A
C239        F246   1.358       .  S
C240        C241   1.405       .  A
C240        F245   1.357       .  S
C241        C242   1.404       .  A
C242        F243   1.357       .  S
C247        C248   1.403       .  A
C247        C252   1.398       .  A
C247        F254   1.358       .  S
C248        C249   1.403       .  A
C249        C250   1.397       .  A
C249        F256   1.356       .  S
C250        C251   1.403       .  A
C250        F255   1.358       .  S
C251        C252   1.405       .  A
C252        F253   1.358       .  S
C257        C258   1.406       .  A
C257        C262   1.399       .  A
C257        F264   1.357       .  S
C258        C259   1.405       .  A
C259        C260   1.400       .  A
C259        F266   1.357       .  S
C260        C261   1.403       .  A
C260        F265   1.358       .  S
C261        C262   1.403       .  A
C262        F263   1.358       .  S
C267        C268   1.403       .  A
C267        C272   1.398       .  A
C267        F274   1.358       .  S
C268        C269   1.403       .  A
C269        C270   1.397       .  A
C269        F276   1.356       .  S
C270        C271   1.403       .  A
C270        F275   1.358       .  S
C271        C272   1.405       .  A
C272        F273   1.357       .  S
C277        C278   1.404       .  A
C277        C282   1.399       .  A
C277        F284   1.357       .  S
C278        C279   1.403       .  A
C279        C280   1.397       .  A
C279        F286   1.357       .  S
C280        C281   1.404       .  A
C280        F285   1.357       .  S
C281        C282   1.405       .  A
C282        F283   1.358       .  S
C287        C288   1.403       .  A
C287        C292   1.397       .  A
C287        F294   1.357       .  S
C288        C289   1.404       .  A
C289        C290   1.398       .  A
C289        F296   1.357       .  S
C290        C291   1.404       .  A
C290        F295   1.358       .  S
C291        C292   1.404       .  A
C292        F293   1.357       .  S
C297        C298   1.404       .  A
C297        C302   1.398       .  A
C297        F304   1.357       .  S
C298        C299   1.405       .  A
C299        C300   1.399       .  A
C299        F306   1.357       .  S
C300        C301   1.404       .  A
C300        F305   1.357       .  S
C301        C302   1.403       .  A
C302        F303   1.357       .  S
C307        C308   1.406       .  A
C307        C312   1.399       .  A
C307        F314   1.358       .  S
C308        C309   1.406       .  A
C309        C310   1.398       .  A
C309        F316   1.358       .  S
C310        C311   1.404       .  A
C310        F315   1.357       .  S
C311        C312   1.404       .  A
C312        F313   1.357       .  S
C317        C318   1.403       .  A
C317        C322   1.399       .  A
C317        F324   1.357       .  S
C318        C319   1.404       .  A
C319        C320   1.399       .  A
C319        F326   1.357       .  S
C320        C321   1.406       .  A
C320        F325   1.358       .  S
C321        C322   1.406       .  A
C322        F323   1.358       .  S
C327        C328   1.404       .  A
C327        C332   1.400       .  A
C327        F334   1.357       .  S
C328        C329   1.404       .  A
C329        C330   1.399       .  A
C329        F336   1.357       .  S
C330        C331   1.406       .  A
C330        F335   1.358       .  S
C331        C332   1.407       .  A
C332        F333   1.358       .  S
C337        C338   1.403       .  A
C337        C342   1.398       .  A
C337        F344   1.357       .  S
C338        C339   1.404       .  A
C339        C340   1.400       .  A
C339        F346   1.357       .  S
C340        C341   1.406       .  A
C340        F345   1.358       .  S
C341        C342   1.406       .  A
C342        F343   1.358       .  S
C347        C348   1.404       .  A
C347        C352   1.399       .  A
C347        F354   1.357       .  S
C348        C349   1.404       .  A
C349        C350   1.399       .  A
C349        F356   1.357       .  S
C350        C351   1.404       .  A
C350        F355   1.358       .  S
C351        C352   1.405       .  A
C352        F353   1.358       .  S
C357        C358   1.403       .  A
C357        C362   1.398       .  A
C357        F364   1.357       .  S
C358        C359   1.404       .  A
C359        C360   1.399       .  A
C359        F366   1.357       .  S
C360        C361   1.406       .  A
C360        F365   1.358       .  S
C361        C362   1.406       .  A
C362        F363   1.358       .  S
C367        C368   1.406       .  A
C367        C372   1.398       .  A
C367        F374   1.358       .  S
C368        C369   1.406       .  A
C369        C370   1.398       .  A
C369        F376   1.358       .  S
C370        C371   1.404       .  A
C370        F375   1.357       .  S
C371        C372   1.404       .  A
C372        F373   1.357       .  S
C377        C378   1.406       .  A
C377        C382   1.396       .  A
C377        F384   1.358       .  S
C378        C379   1.406       .  A
C379        C380   1.398       .  A
C379        F386   1.358       .  S
C380        C381   1.404       .  A
C380        F385   1.357       .  S
C381        C382   1.403       .  A
C382        F383   1.357       .  S
C387        C388   1.403       .  A
C387        C392   1.397       .  A
C387        F394   1.356       .  S
C388        C389   1.404       .  A
C389        C390   1.398       .  A
C389        F396   1.358       .  S
C390        C391   1.404       .  A
C390        F395   1.357       .  S
C391        C392   1.403       .  A
C392        F393   1.357       .  S
C397        C398   1.403       .  A
C397        C402   1.398       .  A
C397        F404   1.358       .  S
C398        C399   1.404       .  A
C399        C400   1.396       .  A
C399        F406   1.357       .  S
C400        C401   1.405       .  A
C400        F405   1.358       .  S
C401        C402   1.407       .  A
C402        F403   1.358       .  S
C407        C408   1.406       .  A
C407        C412   1.398       .  A
C407        F414   1.358       .  S
C408        C409   1.406       .  A
C409        C410   1.396       .  A
C409        F416   1.358       .  S
C410        C411   1.403       .  A
C410        F415   1.357       .  S
C411        C412   1.404       .  A
C412        F413   1.357       .  S
C417        C418   1.407       .  A
C417        C422   1.398       .  A
C417        F424   1.358       .  S
C418        C419   1.407       .  A
C419        C420   1.399       .  A
C419        F426   1.358       .  S
C420        C421   1.404       .  A
C420        F425   1.357       .  S
C421        C422   1.404       .  A
C422        F423   1.357       .  S
C427        C428   1.405       .  A
C427        C432   1.399       .  A
C427        F434   1.357       .  S
C428        C429   1.405       .  A
C429        C430   1.399       .  A
C429        F436   1.357       .  S
C430        C431   1.404       .  A
C430        F435   1.358       .  S
C431        C432   1.404       .  A
C432        F433   1.358       .  S
C437        C438   1.405       .  A
C437        C442   1.397       .  A
C437        F444   1.357       .  S
C438        C439   1.406       .  A
C439        C440   1.400       .  A
C439        F446   1.357       .  S
C440        C441   1.403       .  A
C440        F445   1.358       .  S
C441        C442   1.402       .  A
C442        F443   1.356       .  S
C447        C448   1.407       .  A
C447        C452   1.399       .  A
C447        F454   1.358       .  S
C448        C449   1.406       .  A
C449        C450   1.396       .  A
C449        F456   1.358       .  S
C450        C451   1.403       .  A
C450        F455   1.357       .  S
C451        C452   1.404       .  A
C452        F453   1.357       .  S
C457        C458   1.403       .  A
C457        C462   1.397       .  A
C457        F464   1.357       .  S
C458        C459   1.403       .  A
C459        C460   1.398       .  A
C459        F466   1.357       .  S
C460        C461   1.404       .  A
C460        F465   1.358       .  S
C461        C462   1.403       .  A
C462        F463   1.356       .  S
C467        C468   1.405       .  A
C467        C472   1.399       .  A
C467        F474   1.357       .  S
C468        C469   1.404       .  A
C469        C470   1.397       .  A
C469        F476   1.358       .  S
C470        C471   1.403       .  A
C470        F475   1.356       .  S
C471        C472   1.404       .  A
C472        F473   1.358       .  S
C477        C478   1.402       .  A
C477        C482   1.396       .  A
C477        F484   1.356       .  S
C478        C479   1.403       .  A
C479        C480   1.398       .  A
C479        F486   1.358       .  S
C480        C481   1.405       .  A
C480        F485   1.357       .  S
C481        C482   1.403       .  A
C482        F483   1.358       .  S
C487        C488   1.404       .  A
C487        C492   1.398       .  A
C487        F494   1.358       .  S
C488        C489   1.403       .  A
C489        C490   1.397       .  A
C489        F496   1.358       .  S
C490        C491   1.403       .  A
C490        F495   1.356       .  S
C491        C492   1.404       .  A
C492        F493   1.357       .  S
C497        C498   1.404       .  A
C497        C502   1.399       .  A
C497        F504   1.357       .  S
C498        C499   1.403       .  A
C499        C500   1.398       .  A
C499        F506   1.358       .  S
C500        C501   1.406       .  A
C500        F505   1.357       .  S
C501        C502   1.404       .  A
C502        F503   1.358       .  S
C507        C508   1.404       .  A
C507        C512   1.398       .  A
C507        F514   1.357       .  S
C508        C509   1.404       .  A
C509        C510   1.398       .  A
C509        F516   1.357       .  S
C510        C511   1.406       .  A
C510        F515   1.358       .  S
C511        C512   1.406       .  A
C512        F513   1.358       .  S
C517        C518   1.404       .  A
C517        C522   1.397       .  A
C517        F524   1.357       .  S
C518        C519   1.403       .  A
C519        C520   1.398       .  A
C519        F526   1.357       .  S
C520        C521   1.406       .  A
C520        F525   1.358       .  S
C521        C522   1.406       .  A
C522        F523   1.358       .  S
C527        C528   1.404       .  A
C527        C532   1.398       .  A
C527        F534   1.357       .  S
C528        C529   1.404       .  A
C529        C530   1.397       .  A
C529        F536   1.357       .  S
C530        C531   1.407       .  A
C530        F535   1.358       .  S
C531        C532   1.407       .  A
C532        F533   1.358       .  S
C537        C538   1.405       .  A
C537        C542   1.398       .  A
C537        F544   1.358       .  S
C538        C539   1.405       .  A
C539        C540   1.398       .  A
C539        F546   1.358       .  S
C540        C541   1.403       .  A
C540        F545   1.357       .  S
C541        C542   1.403       .  A
C542        F543   1.357       .  S
C547        C548   1.404       .  A
C547        C552   1.398       .  A
C547        F554   1.357       .  S
C548        C549   1.404       .  A
C549        C550   1.397       .  A
C549        F556   1.357       .  S
C550        C551   1.406       .  A
C550        F555   1.358       .  S
C551        C552   1.407       .  A
C552        F553   1.358       .  S
C557        C558   1.403       .  A
C557        C562   1.398       .  A
C557        F564   1.357       .  S
C558        C559   1.404       .  A
C559        C560   1.398       .  A
C559        F566   1.357       .  S
C560        C561   1.404       .  A
C560        F565   1.357       .  S
C561        C562   1.404       .  A
C562        F563   1.356       .  S
C567        C568   1.403       .  A
C567        C572   1.397       .  A
C567        F574   1.357       .  S
C568        C569   1.404       .  A
C569        C570   1.398       .  A
C569        F576   1.357       .  S
C570        C571   1.404       .  A
C570        F575   1.358       .  S
C571        C572   1.403       .  A
C572        F573   1.357       .  S
C577        C578   1.405       .  A
C577        C582   1.400       .  A
C577        F584   1.357       .  S
C578        C579   1.405       .  A
C579        C580   1.400       .  A
C579        F586   1.357       .  S
C580        C581   1.404       .  A
C580        F585   1.357       .  S
C581        C582   1.404       .  A
C582        F583   1.357       .  S
C587        C588   1.406       .  A
C587        C592   1.399       .  A
C587        F594   1.358       .  S
C588        C589   1.406       .  A
C589        C590   1.399       .  A
C589        F596   1.358       .  S
C590        C591   1.404       .  A
C590        F595   1.357       .  S
C591        C592   1.404       .  A
C592        F593   1.357       .  S
C597        C598   1.403       .  A
C597        C602   1.398       .  A
C597        F604   1.357       .  S
C598        C599   1.403       .  A
C599        C600   1.397       .  A
C599        F606   1.357       .  S
C600        C601   1.406       .  A
C600        F605   1.358       .  S
C601        C602   1.406       .  A
C602        F603   1.358       .  S
C607        C608   1.406       .  A
C607        C612   1.398       .  A
C607        F614   1.358       .  S
C608        C609   1.406       .  A
C609        C610   1.398       .  A
C609        F616   1.358       .  S
C610        C611   1.404       .  A
C610        F615   1.357       .  S
C611        C612   1.404       .  A
C612        F613   1.357       .  S
C617        C618   1.406       .  A
C617        C622   1.397       .  A
C617        F624   1.358       .  S
C618        C619   1.406       .  A
C619        C620   1.398       .  A
C619        F626   1.358       .  S
C620        C621   1.404       .  A
C620        F625   1.357       .  S
C621        C622   1.404       .  A
C622        F623   1.357       .  S
C627        C628   1.405       .  A
C627        C632   1.399       .  A
C627        F634   1.357       .  S
C628        C629   1.404       .  A
C629        C630   1.398       .  A
C629        F636   1.357       .  S
C630        C631   1.406       .  A
C630        F635   1.358       .  S
C631        C632   1.406       .  A
C632        F633   1.358       .  S
C637        C638   1.403       .  A
C637        C642   1.399       .  A
C637        F644   1.358       .  S
C638        C639   1.404       .  A
C639        C640   1.399       .  A
C639        F646   1.358       .  S
C640        C641   1.405       .  A
C640        F645   1.357       .  S
C641        C642   1.405       .  A
C642        F643   1.357       .  S
C647        C648   1.403       .  A
C647        C652   1.397       .  A
C647        F654   1.358       .  S
C648        C649   1.403       .  A
C649        C650   1.397       .  A
C649        F656   1.357       .  S
C650        C651   1.404       .  A
C650        F655   1.358       .  S
C651        C652   1.404       .  A
C652        F653   1.358       .  S
C657        C658   1.405       .  A
C657        C662   1.397       .  A
C657        F664   1.358       .  S
C658        C659   1.405       .  A
C659        C660   1.398       .  A
C659        F666   1.358       .  S
C660        C661   1.403       .  A
C660        F665   1.357       .  S
C661        C662   1.403       .  A
C662        F663   1.357       .  S
C667        C668   1.406       .  A
C667        C672   1.398       .  A
C667        F674   1.358       .  S
C668        C669   1.406       .  A
C669        C670   1.398       .  A
C669        F676   1.358       .  S
C670        C671   1.403       .  A
C670        F675   1.357       .  S
C671        C672   1.404       .  A
C672        F673   1.357       .  S
C677        C678   1.404       .  A
C677        C682   1.398       .  A
C677        F684   1.357       .  S
C678        C679   1.403       .  A
C679        C680   1.398       .  A
C679        F686   1.357       .  S
C680        C681   1.406       .  A
C680        F685   1.358       .  S
C681        C682   1.405       .  A
C682        F683   1.358       .  S
C687        C688   1.402       .  A
C687        C692   1.397       .  A
C687        F694   1.357       .  S
C688        C689   1.403       .  A
C689        C690   1.398       .  A
C689        F696   1.358       .  S
C690        C691   1.405       .  A
C690        F695   1.357       .  S
C691        C692   1.405       .  A
C692        F693   1.357       .  S
