geometry optimzed in LAMMPS
_audit_creation_date              2020-11-30 
_audit_creation_method            'lammps2cif' 
_symmetry_space_group_name_H-M    'P1' 
_symmetry_Int_Tables_number       1 
_symmetry_cell_setting            triclinic 
loop_ 
_symmetry_equiv_pos_as_xyz 
  x,y,z 
_cell_length_a                    46.40591818 
_cell_length_b                    46.5045696135229 
_cell_length_c                    38.11296177326536 
_cell_angle_alpha                 89.89105064565295 
_cell_angle_beta                  90.03383398068829 
_cell_angle_gamma                 89.78220441753955 
loop_ 
_atom_site_label 
_atom_site_type_symbol 
_atom_site_fract_x 
_atom_site_fract_y 
_atom_site_fract_z 
_atom_site_charge 
C1          C  0.88455955  0.76243499  0.50526284    -0.02000
O2          O  0.91597383  0.57245879  0.29310383    -0.73900
O3          O  0.91480511  0.63494194  0.22574545    -0.73900
O4          O  0.91060502  0.63016505  0.29805786    -0.74000
O5          O  0.91966760  0.57580438  0.22194725    -0.74000
O6          O  0.87190032  0.57205843  0.21869213    -0.74000
O7          O  0.86285718  0.62705280  0.29346652    -0.74000
O8          O  0.86718948  0.63067129  0.22125730    -0.73900
O9          O  0.86818575  0.56888248  0.28978073    -0.74000
Ni10       Ni  0.91693838  0.60365685  0.25970739     1.25400
Ni11       Ni  0.86587516  0.59970204  0.25553624     1.25400
C12         C  0.89238518  0.56048885  0.30269206     0.88300
C13         C  0.89081502  0.64281638  0.21178434     0.88200
C14         C  0.88527097  0.63640087  0.30941225     0.88200
C15         C  0.89708415  0.56408203  0.20877374     0.88400
C16         C  0.86542569  0.97089692  0.50650191    -0.02000
O17         O  0.85779606  0.09742799  0.22554186    -0.73900
O18         O  0.86204668  0.16117270  0.29036862    -0.73900
O19         O  0.86358894  0.15532852  0.21958757    -0.74000
O20         O  0.85547575  0.10348074  0.29767057    -0.74000
O21         O  0.90319851  0.09908406  0.30136012    -0.74000
O22         O  0.91131127  0.14994746  0.22119098    -0.74000
O23         O  0.90983067  0.15633981  0.29215592    -0.73900
O24         O  0.90538753  0.09172173  0.22878462    -0.74000
Ni25       Ni  0.85805787  0.12933740  0.25818823     1.25400
Ni26       Ni  0.90910794  0.12387746  0.26089177     1.25400
C27         C  0.88099300  0.08466811  0.21548619     0.88300
C28         C  0.88676000  0.16939025  0.30166809     0.88200
C29         C  0.88866714  0.16169317  0.20793961     0.88200
C30         C  0.87790724  0.09410936  0.31373366     0.88400
O31         O  0.87577534  0.39324819  0.47558357    -0.73900
O32         O  0.87906814  0.33217592  0.04357907    -0.73900
O33         O  0.87817531  0.39096365  0.04675697    -0.74000
O34         O  0.87708393  0.33477378  0.47390457    -0.74000
O35         O  0.92510275  0.33511744  0.47321742    -0.74000
O36         O  0.92617173  0.39162724  0.04557885    -0.74000
O37         O  0.92707046  0.33218821  0.04231035    -0.73900
O38         O  0.92377945  0.39443180  0.47512997    -0.74000
Ni39       Ni  0.87521486  0.36337250  0.51031322     1.25400
Ni40       Ni  0.92744968  0.36335085  0.00825998     1.25400
C41         C  0.89932323  0.40410754  0.46430317     0.88300
C42         C  0.90324886  0.32150696  0.05344938     0.88200
C43         C  0.90217637  0.40117696  0.05775574     0.88200
C44         C  0.90106050  0.32524851  0.46179505     0.88400
C45         C  0.85847499  0.78965186  0.50119490    -0.02000
O46         O  0.66699809  0.78486501  0.28491612    -0.73900
O47         O  0.72564133  0.78059334  0.21429525    -0.73900
O48         O  0.72563237  0.77993500  0.28611907    -0.74000
O49         O  0.66741249  0.78524193  0.21422035    -0.74000
O50         O  0.67227344  0.83290512  0.21299817    -0.74000
O51         O  0.72868432  0.82775502  0.28770500    -0.74000
O52         O  0.73096372  0.82823143  0.21591162    -0.73900
O53         O  0.67035220  0.83270777  0.28431449    -0.74000
Ni54       Ni  0.69645062  0.78097890  0.24990781     1.25400
Ni55       Ni  0.70079890  0.83211574  0.25023395     1.25400
C56         C  0.65848637  0.80959997  0.29549592     0.88300
C57         C  0.73760596  0.80363712  0.20310660     0.88200
C58         C  0.73617156  0.80292293  0.29943088     0.88200
C59         C  0.66003694  0.80988015  0.20195970     0.88400
C60         C  0.06117698  0.81038381  0.99400964    -0.02000
O61         O  0.19419468  0.80040803  0.27883023    -0.73900
O62         O  0.25332871  0.80414287  0.20853154    -0.73900
O63         O  0.25272562  0.80123643  0.27967174    -0.74000
O64         O  0.19425091  0.80388863  0.20690236    -0.74000
O65         O  0.19482602  0.85176417  0.20862395    -0.74000
O66         O  0.25190809  0.84909756  0.28252854    -0.74000
O67         O  0.25385682  0.85198894  0.21189307    -0.73900
O68         O  0.19302161  0.84829458  0.28128958    -0.74000
Ni69       Ni  0.22351871  0.80076559  0.24325750     1.25400
Ni70       Ni  0.22315456  0.85199189  0.24612834     1.25400
C71         C  0.18455973  0.82363201  0.29252529     0.88300
C72         C  0.26418861  0.82840799  0.19970892     0.88200
C73         C  0.26222739  0.82485021  0.29268797     0.88200
C74         C  0.18527252  0.82831022  0.19530824     0.88400
O75         O  0.42902761  0.80156821  0.46483150    -0.73900
O76         O  0.49157477  0.80046983  0.03164507    -0.73900
O77         O  0.43301625  0.80338483  0.03487143    -0.74000
O78         O  0.48763595  0.79906523  0.45982613    -0.74000
O79         O  0.49007634  0.84695327  0.45921567    -0.74000
O80         O  0.43524933  0.85126383  0.03399186    -0.74000
O81         O  0.49429764  0.84830051  0.03002923    -0.73900
O82         O  0.43114214  0.84943209  0.46344793    -0.74000
Ni83       Ni  0.46048331  0.79900973  0.49774203     1.25400
Ni84       Ni  0.46316917  0.85092628  0.99634915     1.25400
C85         C  0.41955746  0.82577503  0.45341654     0.88300
C86         C  0.50352623  0.82394240  0.04143044     0.88200
C87         C  0.42479402  0.82788324  0.04650977     0.88200
C88         C  0.49833968  0.82238580  0.44767472     0.88400
C89         C  0.83634253  0.94610410  0.00436376    -0.02000
O90         O  0.64502708  0.96467071  0.21753434    -0.73900
O91         O  0.70259914  0.96865276  0.29026052    -0.73900
O92         O  0.70331741  0.96741455  0.21827755    -0.74000
O93         O  0.64401177  0.96609710  0.28858869    -0.74000
O94         O  0.64477607  0.91814787  0.28846036    -0.74000
O95         O  0.70708698  0.91966547  0.22126168    -0.74000
O96         O  0.70324135  0.92075360  0.29323868    -0.73900
O97         O  0.64816554  0.91681125  0.21773586    -0.74000
Ni98       Ni  0.67378928  0.96839940  0.25363098     1.25400
Ni99       Ni  0.67607494  0.91713850  0.25519707     1.25400
C100        C  0.63679213  0.94010754  0.20607829     0.88300
C101        C  0.71163096  0.94529311  0.30452340     0.88200
C102        C  0.71468818  0.94380690  0.20776399     0.88200
C103        C  0.63403058  0.94196811  0.29933682     0.88400
C104        C  0.05069316  0.96404496  0.50212544    -0.02000
O105        O  0.23537477  0.98371595  0.28594990    -0.73900
O106        O  0.17234448  0.98815146  0.22054199    -0.73900
O107        O  0.17761285  0.99128134  0.29181659    -0.74000
O108        O  0.23059205  0.98142833  0.21547728    -0.74000
O109        O  0.22471168  0.93389266  0.21709634    -0.74000
O110        O  0.17334466  0.94367450  0.29632182    -0.74000
O111        O  0.16632061  0.94072461  0.22474366    -0.73900
O112        O  0.23037263  0.93603566  0.28782855    -0.74000
Ni113      Ni  0.20402498  0.98782082  0.25320508     1.25400
Ni114      Ni  0.19831135  0.93688774  0.25646504     1.25400
C115        C  0.24323536  0.95897367  0.29748592     0.88300
C116        C  0.15902558  0.96510935  0.21179488     0.88200
C117        C  0.16804255  0.96910429  0.30789810     0.88200
C118        C  0.23719274  0.95625096  0.20443295     0.88400
O119        O  0.46581328  0.91288634  0.03859616    -0.73900
O120        O  0.40646579  0.91928216  0.46811622    -0.73900
O121        O  0.46522309  0.91632210  0.46773770    -0.74000
O122        O  0.40651500  0.91599129  0.03811043    -0.74000
O123        O  0.40937394  0.96372364  0.04189223    -0.74000
O124        O  0.46757918  0.96417693  0.46982658    -0.74000
O125        O  0.40916162  0.96714752  0.46971915    -0.73900
O126        O  0.46795392  0.96070904  0.04145972    -0.74000
Ni127      Ni  0.43628821  0.91462452  0.00269378     1.25400
Ni128      Ni  0.43828898  0.96636122  0.50530713     1.25400
C129        C  0.47693679  0.93589927  0.05121570     0.88300
C130        C  0.39805230  0.94410487  0.45745105     0.88200
C131        C  0.47621687  0.94011800  0.45724778     0.88200
C132        C  0.39775990  0.93991412  0.05112456     0.88400
C133        C  0.04057115  0.77858350  0.99728585    -0.02000
O134        O  0.02334432  0.64510905  0.28775426    -0.73900
O135        O  0.02057651  0.59002244  0.21228729    -0.73900
O136        O  0.02285597  0.58722646  0.28325141    -0.74000
O137        O  0.02095796  0.64857959  0.21533160    -0.74000
O138        O  0.06890487  0.64758775  0.21252511    -0.74000
O139        O  0.07089926  0.58721385  0.28206636    -0.74000
O140        O  0.06859332  0.58899040  0.21108708    -0.73900
O141        O  0.07130659  0.64558921  0.28487464    -0.74000
Ni142      Ni  0.02024252  0.61794896  0.24968786     1.25400
Ni143      Ni  0.07161705  0.61752122  0.24750990     1.25400
C144        C  0.04777959  0.65340076  0.29979707     0.88300
C145        C  0.04420734  0.57976506  0.20002153     0.88200
C146        C  0.04708977  0.57695807  0.29357149     0.88200
C147        C  0.04460739  0.65750497  0.20173086     0.88400
C148        C  0.01864161  0.98245433  0.99477674    -0.02000
O149        O  0.04687496  0.17379457  0.21102455    -0.73900
O150        O  0.04252736  0.11197048  0.27800158    -0.73900
O151        O  0.04191182  0.11584657  0.20624366    -0.74000
O152        O  0.04746596  0.17065024  0.28221111    -0.74000
O153        O  0.99971419  0.17585198  0.28153343    -0.74000
O154        O  0.99398188  0.11834729  0.20865951    -0.74000
O155        O  0.99483115  0.11767865  0.28057070    -0.73900
O156        O  0.99891329  0.17713014  0.21067343    -0.74000
Ni157      Ni  0.04638396  0.14279967  0.24438001     1.25400
Ni158      Ni  0.99515759  0.14726401  0.24532369     1.25400
C159        C  0.02362892  0.18582465  0.20016615     0.88300
C160        C  0.01799966  0.10529126  0.29108374     0.88200
C161        C  0.01709134  0.10817544  0.19480296     0.88200
C162        C  0.02449778  0.18298028  0.29363026     0.88400
O163        O  0.06058400  0.34892754  0.46572220    -0.73900
O164        O  0.05982317  0.41193031  0.02934413    -0.73900
O165        O  0.05765074  0.35335156  0.03489412    -0.74000
O166        O  0.06262191  0.40765014  0.46130650    -0.74000
O167        O  0.01461332  0.40918416  0.45941275    -0.74000
O168        O  0.00964114  0.35581357  0.03449510    -0.74000
O169        O  0.01185859  0.41425697  0.02791217    -0.73900
O170        O  0.01259379  0.35067579  0.46446564    -0.74000
Ni171      Ni  0.06247575  0.38009894  0.49909741     1.25400
Ni172      Ni  0.00944538  0.38230918  0.99569474     1.25400
C173        C  0.03644298  0.33935714  0.45429766     0.88300
C174        C  0.03611378  0.42375034  0.03911512     0.88200
C175        C  0.03315355  0.34542211  0.04691898     0.88200
C176        C  0.03919565  0.41779236  0.44832746     0.88400
O177        O  0.02437910  0.85307297  0.99279238    -0.73900
O178        O  0.00946906  0.92813750  0.95067881    -0.73900
O179        O  0.99436227  0.87595769  0.93390778    -0.74000
O180        O  0.03363177  0.91277851  0.00680375    -0.74000
O181        O  0.06303883  0.92252354  0.46192431    -0.74000
O182        O  0.03195452  0.85614873  0.41147973    -0.74000
O183        O  0.02962664  0.91497117  0.40197090    -0.73900
O184        O  0.06620441  0.85973087  0.46659162    -0.74000
Ni185      Ni  0.01341079  0.89183461  0.97295845     1.25400
Ni186      Ni  0.05075657  0.88862270  0.43386284     1.25400
C187        C  0.04930884  0.84256164  0.48430058     0.88300
C188        C  0.01090959  0.93047393  0.41779328     0.88200
C189        C  0.00557712  0.85481755  0.91905371     0.88200
C190        C  0.05023180  0.93054706  0.99138026     0.88400
O191        O  0.90710512  0.97925714  0.46532955    -0.73900
O192        O  0.97156114  0.96226686  0.40314214    -0.73900
O193        O  0.90873064  0.95452014  0.40445769    -0.74000
O194        O  0.96868513  0.98686788  0.46624268    -0.74000
O195        O  0.97593752  0.94498937  0.99292052    -0.74000
O196        O  0.92243592  0.91371531  0.92481118    -0.74000
O197        O  0.96663371  0.91865394  0.92263482    -0.73900
O198        O  0.91230783  0.94025291  0.99646943    -0.74000
Ni199      Ni  0.93889960  0.97245164  0.43373052     1.25400
Ni200      Ni  0.94436703  0.92836332  0.96242813     1.25400
C201        C  0.89647588  0.96276806  0.98943666     0.88300
C202        C  0.98173933  0.93701310  0.90701007     0.88200
C203        C  0.90355682  0.92774847  0.41003063     0.88200
C204        C  0.98586283  0.97087065  0.48519095     0.88400
O205        O  0.99438291  0.77002405  0.46459846    -0.73900
O206        O  0.92664038  0.80097555  0.41959191    -0.73900
O207        O  0.98441287  0.80737520  0.41560232    -0.74000
O208        O  0.93023916  0.76237577  0.46937765    -0.74000
O209        O  0.92952699  0.79141051  0.01544911    -0.74000
O210        O  0.98121638  0.83455568  0.96277860    -0.74000
O211        O  0.92667824  0.82809218  0.96710388    -0.73900
O212        O  0.99209086  0.79896428  0.01055149    -0.74000
Ni213      Ni  0.95911450  0.78262950  0.44124768     1.25400
Ni214      Ni  0.95741512  0.81375417  0.99071565     1.25400
C215        C  0.00724993  0.78329823  0.99012277     0.88300
C216        C  0.91673104  0.82211816  0.93688408     0.88200
C217        C  0.99080151  0.82985636  0.43268605     0.88200
C218        C  0.91658149  0.77234500  0.49669547     0.88400
O219        O  0.86219160  0.89917177  0.01496322    -0.73900
O220        O  0.90467100  0.86695415  0.94027947    -0.73900
O221        O  0.88055579  0.91631941  0.95647960    -0.74000
O222        O  0.88351153  0.84083569  0.00123563    -0.74000
O223        O  0.84039084  0.83767242  0.47980571    -0.74000
O224        O  0.86028786  0.89757800  0.41153821    -0.74000
O225        O  0.87022297  0.83952471  0.42128949    -0.73900
O226        O  0.82907573  0.89828021  0.47461974    -0.74000
Ni227      Ni  0.88483320  0.88063160  0.98014041     1.25400
Ni228      Ni  0.84699277  0.86800497  0.44552037     1.25400
C229        C  0.84205334  0.91198327  0.50019283     0.88300
C230        C  0.89694721  0.84344977  0.42711092     0.88200
C231        C  0.87684856  0.91732572  0.92404643     0.88200
C232        C  0.86172504  0.82485800  0.99342445     0.88400
C233        C  0.01924305  0.28294990  0.39330050     0.20900
C234        C  0.00127341  0.26630622  0.37181272    -0.39000
C235        C  0.01451154  0.24336062  0.35397583     0.19800
C236        C  0.04373471  0.23781859  0.35653113     0.22500
C237        C  0.06192665  0.25484756  0.37769732    -0.39500
C238        C  0.04848032  0.27757203  0.39609384     0.21300
N239        N  0.01147930  0.30549809  0.41334295    -0.32800
C240        C  0.03586567  0.31487477  0.42920422    -0.10400
C241        C  0.05950187  0.29800363  0.41894281    -0.29200
N242        N  0.05110362  0.21529211  0.33597883    -0.45800
C243        C  0.02634819  0.20631892  0.32033613    -0.05000
C244        C  0.00309986  0.22335544  0.33112490    -0.22400
H245        H  0.97865636  0.27128682  0.36880739     0.19400
H246        H  0.08483826  0.25072481  0.37968775     0.18200
H247        H  0.08166902  0.30021609  0.42731838     0.14500
H248        H  0.98089237  0.22178384  0.32267934     0.14300
H249        H  0.99074528  0.31401975  0.41608530     0.32500
H250        H  0.07177395  0.20683091  0.33238533     0.35300
C251        C  0.01409369  0.24963010  0.14866408     0.20900
C252        C  0.99963734  0.27395784  0.13543982    -0.39000
C253        C  0.01568768  0.29155859  0.11278981     0.19800
C254        C  0.04412154  0.28561152  0.10447415     0.22500
C255        C  0.05862050  0.26139808  0.11784731    -0.39500
C256        C  0.04249248  0.24366930  0.14020781     0.21300
N257        N  0.00355147  0.22940707  0.17038162    -0.32800
C258        C  0.02543710  0.21052344  0.17595476    -0.10400
C259        C  0.05009232  0.21872323  0.15758299    -0.29200
N260        N  0.05428358  0.30494747  0.08138765    -0.45800
C261        C  0.03206958  0.32311046  0.07442744    -0.05000
C262        C  0.00764990  0.31557265  0.09372526    -0.22400
H263        H  0.97743317  0.27865938  0.14198126     0.19400
H264        H  0.08074280  0.25654058  0.11101312     0.18200
H265        H  0.07084438  0.20802337  0.15727178     0.14500
H266        H  0.98658096  0.32561937  0.09286071     0.14300
H267        H  0.98295479  0.22881944  0.18139352     0.32500
H268        H  0.07467283  0.30496089  0.06978100     0.35300
C269        C  0.02539470  0.04823313  0.35422119     0.20900
C270        C  0.03561483  0.02227341  0.36914509    -0.39000
C271        C  0.02729882  0.01698440  0.40418926     0.19800
C272        C  0.01109811  0.03656316  0.42283092     0.22500
C273        C  0.99988859  0.06170285  0.40763789    -0.39500
C274        C  0.00743804  0.06661837  0.37261670     0.21300
N275        N  0.03132117  0.05929917  0.32225741    -0.32800
C276        C  0.01637294  0.08445260  0.32026246    -0.10400
C277        C  0.00102217  0.08952222  0.35102092    -0.29200
N278        N  0.00768015  0.02788105  0.45604086    -0.45800
C279        C  0.02177738  0.00219083  0.45984268    -0.05000
C280        C  0.03294895  0.99416090  0.42680475    -0.22400
H281        H  0.04931231  0.00754841  0.35478052     0.19400
H282        H  0.98667745  0.07667738  0.42230727     0.18200
H283        H  0.98812362  0.10824485  0.35738120     0.14500
H284        H  0.04508015  0.97499109  0.42054890     0.14300
H285        H  0.04487388  0.05051502  0.30317823     0.32500
H286        H  0.99483025  0.03844765  0.47448612     0.35300
C287        C  0.02424732  0.07005400  0.11311372     0.20900
C288        C  0.03462171  0.06525649  0.07901223    -0.39000
C289        C  0.02397840  0.04082189  0.06177481     0.19800
C290        C  0.00503685  0.02189716  0.07732799     0.22500
C291        C  0.99431532  0.02688072  0.11157278    -0.39500
C292        C  0.00436598  0.05196981  0.12865612     0.21300
N293        N  0.03131601  0.09177360  0.13478385    -0.32800
C294        C  0.01546095  0.08820207  0.16434383    -0.10400
C295        C  0.99818743  0.06361260  0.16146237    -0.29200
N296        N  0.99974394  0.99937293  0.05567952    -0.45800
C297        C  0.01517788  0.00411667  0.02573960    -0.05000
C298        C  0.03036571  0.03010921  0.02909579    -0.22400
H299        H  0.05002302  0.07951680  0.06675476     0.19400
H300        H  0.97936339  0.01230226  0.12404749     0.18200
H301        H  0.98350022  0.05515861  0.18092607     0.14500
H302        H  0.04536002  0.03945354  0.01067776     0.14300
H303        H  0.04580406  0.10838008  0.12957663     0.32500
H304        H  0.98703776  0.98147266  0.06131364     0.35300
C305        C  0.05308133  0.48114517  0.09904222     0.20900
C306        C  0.07070073  0.49821078  0.12064411    -0.39000
C307        C  0.05668523  0.52034794  0.13918790     0.19800
C308        C  0.02734646  0.52518178  0.13640800     0.22500
C309        C  0.00979882  0.50835950  0.11444632    -0.39500
C310        C  0.02374532  0.48599380  0.09615334     0.21300
N311        N  0.06116146  0.45859776  0.07910742    -0.32800
C312        C  0.03682074  0.44873181  0.06346862    -0.10400
C313        C  0.01301505  0.46538712  0.07347413    -0.29200
N314        N  0.01914438  0.54711088  0.15730507    -0.45800
C315        C  0.04347277  0.55650851  0.17339675    -0.05000
C316        C  0.06732541  0.54032119  0.16264386    -0.22400
H317        H  0.09363939  0.49439413  0.12304391     0.19400
H318        H  0.98698211  0.51252840  0.11170641     0.18200
H319        H  0.99084530  0.46276002  0.06529202     0.14500
H320        H  0.08940841  0.54251263  0.17135862     0.14300
H321        H  0.08199589  0.45029437  0.07647623     0.32500
H322        H  0.99823589  0.55503778  0.16063874     0.35300
C323        C  0.05715701  0.47411552  0.38781354     0.20900
C324        C  0.07509147  0.49374302  0.37011454    -0.39000
C325        C  0.06087728  0.51564662  0.35123375     0.19800
C326        C  0.03114485  0.51768034  0.35014958     0.22500
C327        C  0.01333092  0.49803000  0.36753970    -0.39500
C328        C  0.02743124  0.47625528  0.38644905     0.21300
N329        N  0.06520534  0.45221578  0.40887155    -0.32800
C330        C  0.04041109  0.44047812  0.42114845    -0.10400
C331        C  0.01640920  0.45478984  0.40745260    -0.29200
N332        N  0.02271900  0.54009996  0.33037245    -0.45800
C333        C  0.04718207  0.55252496  0.31839284    -0.05000
C334        C  0.07152522  0.53793799  0.33096301    -0.22400
H335        H  0.09835253  0.49221791  0.37121156     0.19400
H336        H  0.99016242  0.49976360  0.36639704     0.18200
H337        H  0.99394841  0.45082212  0.41327726     0.14500
H338        H  0.09389307  0.54264422  0.32545014     0.14300
H339        H  0.08625725  0.44627639  0.41546798     0.32500
H340        H  0.00151965  0.54624909  0.32482335     0.35300
C341        C  0.02941834  0.73880501  0.08003279     0.20900
C342        C  0.01301020  0.72507085  0.10621847    -0.39000
C343        C  0.02843676  0.70798362  0.13026417     0.19800
C344        C  0.05800967  0.70472823  0.12824661     0.22500
C345        C  0.07437400  0.71817492  0.10163879    -0.39500
C346        C  0.05886637  0.73538111  0.07756973     0.21300
N347        N  0.01946002  0.75535079  0.05371803    -0.32800
C348        C  0.04257527  0.76309195  0.03353748    -0.10400
C349        C  0.06762972  0.75043304  0.04788274    -0.29200
N350        N  0.06751856  0.68700639  0.15387587    -0.45800
C351        C  0.04388888  0.67877105  0.17240149    -0.05000
C352        C  0.01904312  0.69145302  0.15828474    -0.22400
H353        H  0.98982208  0.72736390  0.10755958     0.19400
H354        H  0.09745321  0.71521837  0.09963042     0.18200
H355        H  0.08923415  0.75146299  0.03729305     0.14500
H356        H  0.99702328  0.68855986  0.16693167     0.14300
H357        H  0.99763114  0.75941864  0.04951290     0.32500
H358        H  0.08878685  0.68041972  0.15807185     0.35300
C359        C  0.06475690  0.69654507  0.37558308     0.20900
C360        C  0.08082443  0.71540645  0.39688256    -0.39000
C361        C  0.06710746  0.72485834  0.42782639     0.19800
C362        C  0.04041973  0.71520520  0.43762765     0.22500
C363        C  0.02451018  0.69600563  0.41681151    -0.39500
C364        C  0.03744882  0.68761992  0.38508004     0.21300
N365        N  0.07189826  0.68599945  0.34374094    -0.32800
C366        C  0.04874660  0.67066758  0.33258844    -0.10400
C367        C  0.02686374  0.67126363  0.35776605    -0.29200
N368        N  0.03103855  0.72966567  0.46586237    -0.45800
C369        C  0.04952696  0.75208883  0.47172162    -0.05000
C370        C  0.07424548  0.74651693  0.45099831    -0.22400
H371        H  0.10158370  0.72362747  0.38880819     0.19400
H372        H  0.00285358  0.68955055  0.42372471     0.18200
H373        H  0.00612194  0.66074837  0.35647707     0.14500
H374        H  0.09515851  0.75609620  0.45157873     0.14300
H375        H  0.09123854  0.68919360  0.33030575     0.32500
H376        H  0.01188316  0.72511617  0.47911399     0.35300
C377        C  0.34156868  0.95771704  0.11211306     0.20900
C378        C  0.32522286  0.97589391  0.13378112    -0.39000
C379        C  0.30025220  0.96385568  0.14839232     0.19800
C380        C  0.29215693  0.93570852  0.14230789     0.22500
C381        C  0.30833609  0.91759530  0.12007363    -0.39500
C382        C  0.33340987  0.92970507  0.10528681     0.21300
N383        N  0.36583083  0.96439994  0.09465954    -0.32800
C384        C  0.37341930  0.94057194  0.07634411    -0.10400
C385        C  0.35365468  0.91842381  0.08230020    -0.29200
N386        N  0.26810780  0.92922485  0.16067362    -0.45800
C387        C  0.26074492  0.95360620  0.17822457    -0.05000
C388        C  0.28025872  0.97561363  0.17092848    -0.22400
H389        H  0.33151486  0.99787462  0.13892779     0.19400
H390        H  0.30190462  0.89570478  0.11470227     0.18200
H391        H  0.35348531  0.89732873  0.07040204     0.14500
H392        H  0.28043241  0.99709637  0.18180887     0.07900
H393        H  0.37627994  0.98425894  0.09461756     0.32500
H394        H  0.25770582  0.90936258  0.16172446     0.35300
C395        C  0.33826760  0.93577498  0.39911946     0.20900
C396        C  0.31502512  0.92174405  0.38311324    -0.39000
C397        C  0.29853070  0.93849038  0.35996420     0.19800
C398        C  0.30421395  0.96726700  0.35385710     0.22500
C399        C  0.32720555  0.98145121  0.37025408    -0.39500
C400        C  0.34401823  0.96454186  0.39300504     0.21300
N401        N  0.35715439  0.92459475  0.42222145    -0.32800
C402        C  0.37496063  0.94645666  0.43106362    -0.10400
C403        C  0.36742229  0.97171153  0.41339439    -0.29200
N404        N  0.28510601  0.97844763  0.33101415    -0.45800
C405        C  0.26734093  0.95650792  0.32234322    -0.05000
C406        C  0.27503730  0.93126088  0.33986633    -0.22400
H407        H  0.30995846  0.89948904  0.38847948     0.19400
H408        H  0.33165112  0.00397964  0.36568489     0.18200
H409        H  0.37747299  0.99259721  0.41557626     0.14500
H410        H  0.26479174  0.91043325  0.33813764     0.14300
H411        H  0.35739050  0.90364200  0.43210982     0.32500
H412        H  0.28432667  0.99958380  0.32171434     0.35300
C413        C  0.08120213  0.97962592  0.08910849     0.20900
C414        C  0.09840707  0.99611574  0.11156153    -0.39000
C415        C  0.10932335  0.98182877  0.14108057     0.19800
C416        C  0.10375184  0.95311658  0.14766875     0.22500
C417        C  0.08601464  0.93671291  0.12537776    -0.39500
C418        C  0.07483670  0.95123627  0.09585372     0.21300
N419        N  0.07208469  0.98721508  0.05708254    -0.32800
C420        C  0.05891497  0.96394899  0.04259035    -0.10400
C421        C  0.06030672  0.94093032  0.06677914    -0.29200
N422        N  0.11976322  0.94370047  0.17490368    -0.45800
C423        C  0.13558763  0.96662259  0.18557439    -0.05000
C424        C  0.12929413  0.99085200  0.16537363    -0.22400
H425        H  0.10422609  0.01807003  0.10539123     0.19400
H426        H  0.08256396  0.91395751  0.12958071     0.18200
H427        H  0.05404451  0.91880920  0.06323866     0.14500
H428        H  0.13956648  0.01168390  0.16659156     0.14300
H429        H  0.07772039  0.00631095  0.04449118     0.32500
H430        H  0.12101136  0.92263829  0.18438930     0.35300
C431        C  0.14097127  0.96580639  0.39586554     0.20900
C432        C  0.13675388  0.95353571  0.42906831    -0.39000
C433        C  0.11845672  0.96867894  0.45183581     0.19800
C434        C  0.10543500  0.99428303  0.44260750     0.22500
C435        C  0.11089009  0.00745315  0.40981527    -0.39500
C436        C  0.12899887  0.99203670  0.38667652     0.21300
N437        N  0.15498302  0.95395787  0.36856355    -0.32800
C438        C  0.15259445  0.97287858  0.34164064    -0.10400
C439        C  0.13666105  0.99709569  0.35199832    -0.29200
N440        N  0.08324099  0.99997713  0.46451521    -0.45800
C441        C  0.07938566  0.97582156  0.48443231    -0.05000
C442        C  0.10419944  0.95848188  0.48077343    -0.22400
H443        H  0.14495651  0.93235056  0.43551039     0.19400
H444        H  0.09970938  0.02680271  0.40162691     0.18200
H445        H  0.13119888  0.01569704  0.33619964     0.14500
H446        H  0.10791756  0.93762698  0.49267745     0.14300
H447        H  0.16603596  0.93434533  0.36844687     0.32500
H448        H  0.07115326  0.01875045  0.46395779     0.35300
C449        C  0.57201893  0.92768351  0.35290673     0.20900
C450        C  0.54898281  0.91168531  0.36679739    -0.39000
C451        C  0.53133713  0.92607823  0.39110857     0.19800
C452        C  0.53584181  0.95450898  0.40012208     0.22500
C453        C  0.55845207  0.97069879  0.38570162    -0.39500
C454        C  0.57635407  0.95616109  0.36185363     0.21300
N455        N  0.59230661  0.91874913  0.33006091    -0.32800
C456        C  0.60951697  0.94181105  0.32415038    -0.10400
C457        C  0.60012990  0.96555980  0.34343931    -0.29200
N458        N  0.51642256  0.96317029  0.42409175    -0.45800
C459        C  0.49953937  0.94004661  0.43080292    -0.05000
C460        C  0.50809190  0.91650430  0.41055247    -0.22400
H461        H  0.54507179  0.88963649  0.35930574     0.19400
H462        H  0.56201718  0.99292718  0.39280158     0.18200
H463        H  0.60945912  0.98685168  0.34390044     0.14500
H464        H  0.49872723  0.89523265  0.41035767     0.14300
H465        H  0.59408878  0.89835815  0.31879478     0.32500
H466        H  0.51513927  0.98343664  0.43578277     0.35300
C467        C  0.57740228  0.92286192  0.14937004     0.20900
C468        C  0.55571946  0.90573288  0.13413267    -0.39000
C469        C  0.53583064  0.92023159  0.11240247     0.19800
C470        C  0.53715316  0.94964188  0.10724400     0.22500
C471        C  0.55833738  0.96677718  0.12293548    -0.39500
C472        C  0.57840474  0.95226362  0.14402242     0.21300
N473        N  0.59877176  0.91447656  0.17115186    -0.32800
C474        C  0.61322325  0.93881383  0.17993386    -0.10400
C475        C  0.60108956  0.96276482  0.16343479    -0.29200
N476        N  0.51606910  0.95851624  0.08569930    -0.45800
C477        C  0.50109857  0.93472610  0.07651276    -0.05000
C478        C  0.51269308  0.91027390  0.09279236    -0.22400
H479        H  0.55418252  0.88292732  0.13918113     0.19400
H480        H  0.55912813  0.98981431  0.11897810     0.18200
H481        H  0.60754513  0.98500259  0.16601909     0.14500
H482        H  0.50534315  0.88831336  0.09040132     0.14300
H483        H  0.60273089  0.89364694  0.18031382     0.32500
H484        H  0.51240637  0.97958994  0.07720885     0.35300
C485        C  0.76867505  0.95223288  0.36786095     0.20900
C486        C  0.79676980  0.95745910  0.38045347    -0.39000
C487        C  0.80092688  0.95365626  0.41681188     0.19800
C488        C  0.77885802  0.94547304  0.43874331     0.22500
C489        C  0.75099313  0.93964225  0.42618179    -0.39500
C490        C  0.74677444  0.94336914  0.38996142     0.21300
N491        N  0.75899548  0.95441538  0.33454395    -0.32800
C492        C  0.73085148  0.94655483  0.33546452    -0.10400
C493        C  0.72248989  0.93947347  0.36955457    -0.29200
N494        N  0.78821552  0.94329169  0.47199548    -0.45800
C495        C  0.81657229  0.95126484  0.47250795    -0.05000
C496        C  0.82527877  0.95632911  0.43755104    -0.22400
H497        H  0.81410632  0.96396672  0.36323757     0.19400
H498        H  0.73379487  0.93280484  0.44342462     0.18200
H499        H  0.70141443  0.93254547  0.37822077     0.14500
H500        H  0.84643658  0.96251663  0.42859182     0.14300
H501        H  0.77084246  0.96049720  0.31247316     0.32500
H502        H  0.77608165  0.93467059  0.49248488     0.35300
C503        C  0.80058208  0.93651862  0.08997477     0.20900
C504        C  0.79474933  0.92316396  0.12248589    -0.39000
C505        C  0.77110024  0.93425594  0.14142475     0.19800
C506        C  0.75506625  0.95732085  0.12916324     0.22500
C507        C  0.76056045  0.97020945  0.09645126    -0.39500
C508        C  0.78370204  0.95868774  0.07727429     0.21300
N509        N  0.82151991  0.92986351  0.06681450    -0.32800
C510        C  0.81777717  0.94740990  0.03837042    -0.10400
C511        C  0.79404453  0.96564388  0.04441736    -0.29200
N512        N  0.73386746  0.96400562  0.15182306    -0.45800
C513        C  0.73575555  0.94472992  0.17850297    -0.05000
C514        C  0.75873477  0.92568534  0.17291294    -0.22400
H515        H  0.80743263  0.90521744  0.13208559     0.19400
H516        H  0.74751164  0.98773875  0.08644840     0.18200
H517        H  0.78552517  0.98203879  0.02704024     0.14500
H518        H  0.76533197  0.90789620  0.18945323     0.14300
H519        H  0.83726890  0.91405308  0.07039440     0.32500
H520        H  0.71833182  0.98012828  0.14872152     0.35300
C521        C  0.32250300  0.83859322  0.34981487     0.20900
C522        C  0.34536597  0.85458552  0.36415892    -0.39000
C523        C  0.36256831  0.84035193  0.38918338     0.19800
C524        C  0.35777488  0.81205045  0.39862804     0.22500
C525        C  0.33519147  0.79585088  0.38384746    -0.39500
C526        C  0.31776260  0.81022814  0.35904874     0.21300
N527        N  0.30305132  0.84739039  0.32577504    -0.32800
C528        C  0.28587760  0.82443716  0.31910509    -0.10400
C529        C  0.29448882  0.80077395  0.33937392    -0.29200
N530        N  0.37743523  0.80331534  0.42248339    -0.45800
C531        C  0.39483680  0.82623204  0.42854767    -0.05000
C532        C  0.38615507  0.84977102  0.40820581    -0.22400
H533        H  0.34963420  0.87649037  0.35619412     0.19400
H534        H  0.33153035  0.77363755  0.39103401     0.18200
H535        H  0.28507099  0.77952060  0.33958897     0.14500
H536        H  0.39599561  0.87081784  0.40717247     0.14300
H537        H  0.30188414  0.86768998  0.31405873     0.32500
H538        H  0.37887842  0.78297888  0.43405590     0.35300
C539        C  0.32843071  0.84229367  0.14970067     0.20900
C540        C  0.35186690  0.85810804  0.13634582    -0.39000
C541        C  0.37034994  0.84322812  0.11328414     0.19800
C542        C  0.36625109  0.81452777  0.10528639     0.22500
C543        C  0.34333888  0.79859250  0.11923606    -0.39500
C544        C  0.32454762  0.81362166  0.14145496     0.21300
N545        N  0.30704407  0.85165067  0.17083669    -0.32800
C546        C  0.28953039  0.82866940  0.17607940    -0.10400
C547        C  0.29992757  0.80458245  0.15828464    -0.29200
N548        N  0.38577290  0.80549661  0.08174269    -0.45800
C549        C  0.40229910  0.82861134  0.07396471    -0.05000
C550        C  0.39354506  0.85258407  0.09342080    -0.22400
H551        H  0.35518039  0.88044656  0.14294183     0.19400
H552        H  0.33996818  0.77624656  0.11254871     0.18200
H553        H  0.29074184  0.78322748  0.15785589     0.14500
H554        H  0.40236482  0.87407201  0.09237519     0.14300
H555        H  0.30471421  0.87223280  0.18140746     0.32500
H556        H  0.38701736  0.78504898  0.07052215     0.35300
C557        C  0.11937943  0.80746610  0.42715157     0.20900
C558        C  0.14780680  0.80909044  0.41441957    -0.39000
C559        C  0.15084303  0.81375127  0.37809563     0.19800
C560        C  0.12736339  0.81617411  0.35588219     0.22500
C561        C  0.09889024  0.81381551  0.36855727    -0.39500
C562        C  0.09591542  0.80949304  0.40505694     0.21300
N563        N  0.11088846  0.80474134  0.46086575    -0.32800
C564        C  0.08144491  0.80621382  0.46109634    -0.10400
C565        C  0.07167674  0.80763729  0.42605345    -0.29200
N566        N  0.13610515  0.82085605  0.32250046    -0.45800
C567        C  0.16537162  0.82150320  0.32355814    -0.05000
C568        C  0.17527341  0.81694377  0.35773251    -0.22400
H569        H  0.16626248  0.80753753  0.43170199     0.19400
H570        H  0.08039344  0.81579596  0.35140250     0.18200
H571        H  0.04957045  0.80767117  0.41731816     0.14500
H572        H  0.19746157  0.81577741  0.36641145     0.14300
H573        H  0.12479556  0.80069894  0.48179135     0.32500
H574        H  0.12304530  0.82306201  0.30032437     0.35300
C575        C  0.09410979  0.81972104  0.08266334     0.20900
C576        C  0.09777711  0.81427642  0.11889122    -0.39000
C577        C  0.12449477  0.82243013  0.13362089     0.19800
C578        C  0.14551322  0.83604440  0.11403977     0.22500
C579        C  0.14159086  0.84187714  0.07796974    -0.39500
C580        C  0.11527679  0.83274547  0.06313067     0.21300
N581        N  0.07178544  0.81194265  0.06193100    -0.32800
C582        C  0.07964932  0.81706281  0.02789880    -0.10400
C583        C  0.10564587  0.83288694  0.02880144    -0.29200
N584        N  0.16934230  0.84062915  0.13369907    -0.45800
C585        C  0.16382346  0.82943527  0.16600131    -0.05000
C586        C  0.13600018  0.81789114  0.16687100    -0.22400
H587        H  0.08155420  0.80321810  0.13413509     0.19400
H588        H  0.15831940  0.85166993  0.06224213     0.18200
H589        H  0.11654350  0.84330440  0.00720205     0.14500
H590        H  0.12575722  0.80714277  0.18873299     0.14300
H591        H  0.05210351  0.80446540  0.07129874     0.32500
H592        H  0.18863921  0.84985306  0.12529347     0.35300
C593        C  0.60749079  0.82790430  0.13565712     0.20900
C594        C  0.59292034  0.84523739  0.11096568    -0.39000
C595        C  0.56834268  0.83303036  0.09524150     0.19800
C596        C  0.55942694  0.80539341  0.10298444     0.22500
C597        C  0.57431633  0.78785738  0.12709971    -0.39500
C598        C  0.59861308  0.80019892  0.14311061     0.21300
N599        N  0.63056691  0.83496172  0.15538565    -0.32800
C600        C  0.63665514  0.81146619  0.17533517    -0.10400
C601        C  0.61720348  0.78932618  0.16821975    -0.29200
N602        N  0.53537440  0.79883416  0.08495053    -0.45800
C603        C  0.52852947  0.82251559  0.06575597    -0.05000
C604        C  0.54875104  0.84429258  0.07136803    -0.22400
H605        H  0.59989404  0.86687003  0.10494880     0.19400
H606        H  0.56726106  0.76628257  0.13330679     0.18200
H607        H  0.61636515  0.76830879  0.18041911     0.14500
H608        H  0.54923581  0.86538504  0.05935721     0.14300
H609        H  0.64140509  0.85460802  0.15543011     0.32500
H610        H  0.52413552  0.77942517  0.08584063     0.35300
C611        C  0.55954376  0.83161626  0.39184389     0.20900
C612        C  0.58387426  0.84560480  0.37827072    -0.39000
C613        C  0.60141553  0.82913586  0.35608510     0.19800
C614        C  0.59566276  0.80060987  0.34868688     0.22500
C615        C  0.57149594  0.78646522  0.36256186    -0.39500
C616        C  0.55363895  0.80313670  0.38431905     0.21300
N617        N  0.53986794  0.84245442  0.41412140    -0.32800
C618        C  0.52135252  0.82069723  0.42107334    -0.10400
C619        C  0.52923375  0.79582289  0.40290968    -0.29200
N620        N  0.61575919  0.78972360  0.32698921    -0.45800
C621        C  0.63420063  0.81161523  0.32022093    -0.05000
C622        C  0.62595042  0.83653853  0.33791514    -0.22400
H623        H  0.58896380  0.86764725  0.38470531     0.19400
H624        H  0.56699192  0.76412187  0.35694836     0.18200
H625        H  0.51905840  0.77494083  0.40412215     0.14500
H626        H  0.63628460  0.85736202  0.33718077     0.14300
H627        H  0.53988635  0.86294321  0.42525283     0.32500
H628        H  0.61649136  0.76891335  0.31673617     0.35300
C629        C  0.82327056  0.80417557  0.08574456     0.20900
C630        C  0.81781728  0.81898738  0.11729094    -0.39000
C631        C  0.79374271  0.80956124  0.13656316     0.19800
C632        C  0.77694195  0.78679410  0.12541641     0.22500
C633        C  0.78213430  0.77241665  0.09376990    -0.39500
C634        C  0.80577163  0.78213916  0.07437629     0.21300
N635        N  0.84424498  0.80926284  0.06217730    -0.32800
C636        C  0.83972065  0.79086525  0.03492055    -0.10400
C637        C  0.81584921  0.77344142  0.04220807    -0.29200
N638        N  0.75554323  0.78165953  0.14817392    -0.45800
C639        C  0.75821022  0.80152606  0.17386023    -0.05000
C640        C  0.78171624  0.81954410  0.16752564    -0.22400
H641        H  0.83106443  0.83673178  0.12591679     0.19400
H642        H  0.76853056  0.75509374  0.08470592     0.18200
H643        H  0.80672148  0.75678742  0.02586380     0.14500
H644        H  0.78896738  0.83741436  0.18335366     0.14300
H645        H  0.86039431  0.82473565  0.06435530     0.32500
H646        H  0.73954900  0.76602713  0.14589853     0.35300
C647        C  0.80117631  0.78946565  0.43453370     0.20900
C648        C  0.77359299  0.79663210  0.42187545    -0.39000
C649        C  0.77043930  0.79760075  0.38526830     0.19800
C650        C  0.79303835  0.79172826  0.36273184     0.22500
C651        C  0.82095624  0.78519207  0.37551234    -0.39500
C652        C  0.82412322  0.78445143  0.41241401     0.21300
N653        N  0.80968447  0.78903687  0.46822307    -0.32800
C654        C  0.83869751  0.78365428  0.46874664    -0.10400
C655        C  0.84831068  0.78129735  0.43367849    -0.29200
N656        N  0.78406160  0.79339738  0.32899776    -0.45800
C657        C  0.75565516  0.80070328  0.33024406    -0.05000
C658        C  0.74650416  0.80359629  0.36490472    -0.22400
H659        H  0.75584803  0.80136830  0.43938228     0.19400
H660        H  0.83894187  0.78135996  0.35805692     0.18200
H661        H  0.87035176  0.77895520  0.42492457     0.14500
H662        H  0.72498073  0.80866045  0.37398045     0.14300
H663        H  0.79657792  0.79553023  0.48898263     0.32500
H664        H  0.79636418  0.78954889  0.30654268     0.35300
C665        C  0.90928815  0.21601499  0.14532055     0.20900
C666        C  0.92803369  0.23470500  0.12718481    -0.39000
C667        C  0.91486223  0.25754657  0.10864393     0.19800
C668        C  0.88526567  0.26111000  0.10806469     0.22500
C669        C  0.86657693  0.24227714  0.12567223    -0.39500
C670        C  0.87971410  0.21971387  0.14432447     0.21300
N671        N  0.91637650  0.19398632  0.16685370    -0.32800
C672        C  0.89111439  0.18370790  0.17977988    -0.10400
C673        C  0.86780221  0.19909663  0.16592541    -0.29200
N674        N  0.87788307  0.28438984  0.08910525    -0.45800
C675        C  0.90278850  0.29607749  0.07720448    -0.05000
C676        C  0.92646438  0.27982761  0.08882498    -0.22400
H677        H  0.95114992  0.23185788  0.12781372     0.19400
H678        H  0.84344284  0.24533667  0.12544638     0.18200
H679        H  0.84521765  0.19651750  0.17224178     0.14500
H680        H  0.94897847  0.28355308  0.08314832     0.14300
H681        H  0.93715083  0.18717616  0.17350233     0.32500
H682        H  0.85696135  0.29176771  0.08426859     0.35300
C683        C  0.90677981  0.22584719  0.36129348     0.20900
C684        C  0.92513963  0.24191997  0.38313870    -0.39000
C685        C  0.91239392  0.26533136  0.40081605     0.19800
C686        C  0.88336252  0.27164636  0.39751540     0.22500
C687        C  0.86494800  0.25534169  0.37607960    -0.39500
C688        C  0.87778707  0.23228191  0.35807284     0.21300
N689        N  0.91365081  0.20274068  0.34166214    -0.32800
C690        C  0.88883028  0.19425831  0.32589274    -0.10400
C691        C  0.86597011  0.21218593  0.33561760    -0.29200
N692        N  0.87606013  0.29398714  0.41809317    -0.45800
C693        C  0.90051617  0.30228171  0.43472161    -0.05000
C694        C  0.92377616  0.28494442  0.42443688    -0.22400
H695        H  0.94751179  0.23609229  0.38668459     0.19400
H696        H  0.84218092  0.26013189  0.37382458     0.18200
H697        H  0.84370975  0.21072899  0.32734859     0.14500
H698        H  0.94574850  0.28588787  0.43387277     0.14300
H699        H  0.93397784  0.19320844  0.33928287     0.32500
H700        H  0.85545761  0.30275222  0.42115474     0.35300
C701        C  0.88524778  0.00096631  0.09346640     0.20900
C702        C  0.90328539  0.01063886  0.12117456    -0.39000
C703        C  0.89073795  0.03042391  0.14534247     0.19800
C704        C  0.86247718  0.03959426  0.14200090     0.22500
C705        C  0.84499309  0.03060955  0.11423219    -0.39500
C706        C  0.85746064  0.01119179  0.09055324     0.21300
N707        N  0.89177436  0.98362697  0.06562772    -0.32800
C708        C  0.86772608  0.98294704  0.04478412    -0.10400
C709        C  0.84660663  0.00083522  0.05991499    -0.29200
N710        N  0.85547703  0.05874884  0.16707805    -0.45800
C711        C  0.87939103  0.06259340  0.18693914    -0.05000
C712        C  0.90197990  0.04522690  0.17409843    -0.22400
H713        H  0.92550208  0.00377237  0.12339649     0.19400
H714        H  0.82323068  0.03862942  0.11085071     0.18200
H715        H  0.82685291  0.00832838  0.04801530     0.14500
H716        H  0.92387072  0.04420550  0.18382464     0.14300
H717        H  0.91175476  0.97420699  0.06033312     0.32500
H718        H  0.83576567  0.06946503  0.16967745     0.35300
C719        C  0.87251349  0.03833244  0.45653725     0.20900
C720        C  0.89171352  0.05435928  0.43551197    -0.39000
C721        C  0.88120736  0.06332395  0.40253224     0.19800
C722        C  0.85328268  0.05775382  0.39197789     0.22500
C723        C  0.83395953  0.04223987  0.41336731    -0.39500
C724        C  0.84496348  0.03226281  0.44570682     0.21300
N725        N  0.87945181  0.02187489  0.48437896    -0.32800
C726        C  0.85855629  0.00124911  0.48773587    -0.10400
C727        C  0.83468718  0.01101192  0.46790289    -0.29200
N728        N  0.84887691  0.06730501  0.35893093    -0.45800
C729        C  0.87422572  0.07878793  0.34791330    -0.05000
C730        C  0.89495328  0.07666399  0.37455386    -0.22400
H731        H  0.91397820  0.05750833  0.44302665     0.19400
H732        H  0.81277722  0.03618170  0.40413100     0.18200
H733        H  0.81291738  0.00317459  0.46712476     0.14500
H734        H  0.91699784  0.08416543  0.37372613     0.14300
H735        H  0.89948655  0.02206457  0.49694795     0.32500
H736        H  0.82975033  0.06592169  0.34457897     0.35300
C737        C  0.88034406  0.50140360  0.36250267     0.20900
C738        C  0.86474278  0.47970564  0.37996054    -0.39000
C739        C  0.88084198  0.46157206  0.40234613     0.19800
C740        C  0.91018516  0.46487741  0.40711978     0.22500
C741        C  0.92563428  0.48676060  0.39008002    -0.39500
C742        C  0.90967695  0.50470400  0.36742655     0.21300
N743        N  0.87028792  0.52093561  0.33920191    -0.32800
C744        C  0.89340991  0.53674722  0.32898420    -0.10400
C745        C  0.91833311  0.52722649  0.34620454    -0.29200
N746        N  0.92064242  0.44474130  0.42930661    -0.45800
C747        C  0.89780293  0.42840158  0.43894867    -0.05000
C748        C  0.87257008  0.43837897  0.42273219    -0.22400
H749        H  0.84180772  0.47695115  0.37613192     0.19400
H750        H  0.94845900  0.48947534  0.39420159     0.18200
H751        H  0.93997964  0.53548650  0.34329902     0.14500
H752        H  0.85104468  0.42978986  0.42550001     0.14300
H753        H  0.84905470  0.52314145  0.33045741     0.32500
H754        H  0.94197644  0.44240392  0.43761455     0.35300
C755        C  0.91564809  0.46069589  0.11621348     0.20900
C756        C  0.93193032  0.48133938  0.13464918    -0.39000
C757        C  0.91612915  0.50335203  0.15151711     0.19800
C758        C  0.88635529  0.50433795  0.15035569     0.22500
C759        C  0.87011183  0.48354729  0.13240391    -0.39500
C760        C  0.88588345  0.46178925  0.11542960     0.21300
N761        N  0.92544869  0.43835687  0.09688438    -0.32800
C762        C  0.90170349  0.42512214  0.08368026    -0.10400
C763        C  0.87666798  0.43909570  0.09501734    -0.29200
N764        N  0.87622737  0.52661525  0.16924177    -0.45800
C765        C  0.89953068  0.54016013  0.18292847    -0.05000
C766        C  0.92494509  0.52628771  0.17224388    -0.22400
H767        H  0.95514285  0.48007419  0.13608603     0.19400
H768        H  0.84680492  0.48429238  0.13165819     0.18200
H769        H  0.85464754  0.43398438  0.08812567     0.14500
H770        H  0.94679987  0.53158494  0.17967484     0.14300
H771        H  0.94696038  0.43293915  0.09217158     0.32500
H772        H  0.85457491  0.53175376  0.17349952     0.35300
C773        C  0.86373564  0.70539757  0.44068756     0.20900
C774        C  0.84835108  0.69513211  0.41124031    -0.39000
C775        C  0.86410714  0.67772252  0.38760156     0.19800
C776        C  0.89266817  0.67060999  0.39355698     0.22500
C777        C  0.90747786  0.67984224  0.42361178    -0.39500
C778        C  0.89197742  0.69776194  0.44648855     0.21300
N779        N  0.85557098  0.72612206  0.46345282    -0.32800
C780        C  0.87983540  0.73474682  0.48103200    -0.10400
C781        C  0.90161371  0.71423196  0.47394479    -0.29200
N782        N  0.90366500  0.65582800  0.36631056    -0.45800
C783        C  0.88210171  0.65312106  0.34251678    -0.05000
C784        C  0.85689207  0.66633357  0.35505358    -0.22400
H785        H  0.82646453  0.70192409  0.40579000     0.19400
H786        H  0.93011060  0.67513917  0.42757838     0.18200
H787        H  0.92311305  0.71326145  0.48492632     0.14500
H788        H  0.83625849  0.66779863  0.34191061     0.14300
H789        H  0.83433373  0.73279180  0.46654199     0.32500
H790        H  0.92468659  0.64793685  0.36408263     0.35300
C791        C  0.89861279  0.73058747  0.09374375     0.20900
C792        C  0.91520668  0.72074165  0.12277570    -0.39000
C793        C  0.90217555  0.69974663  0.14477400     0.19800
C794        C  0.87462825  0.68980873  0.13842471     0.22500
C795        C  0.85842570  0.69928470  0.10941089    -0.39500
C796        C  0.87152076  0.71978324  0.08747874     0.21300
N797        N  0.90649092  0.74873539  0.06740726    -0.32800
C798        C  0.88419352  0.74955783  0.04373428    -0.10400
C799        C  0.86245284  0.73097452  0.05588195    -0.29200
N800        N  0.86715705  0.66941265  0.16190912    -0.45800
C801        C  0.89008219  0.66550038  0.18357514    -0.05000
C802        C  0.91247935  0.68420635  0.17365297    -0.22400
H803        H  0.93691916  0.72824970  0.12735997     0.19400
H804        H  0.83730499  0.69066720  0.10371237     0.18200
H805        H  0.84337638  0.72431587  0.04188194     0.14500
H806        H  0.93365161  0.68574701  0.18540745     0.14300
H807        H  0.92655733  0.75857915  0.06529221     0.32500
H808        H  0.84782013  0.65799042  0.16235058     0.35300
C809        C  0.88417433  0.76336669  0.00583303    -0.02000
O810        O  0.91284224  0.57313197  0.79328274    -0.73900
O811        O  0.91072419  0.63614772  0.72693383    -0.73900
O812        O  0.90675050  0.63080603  0.79900489    -0.74000
O813        O  0.91641393  0.57725347  0.72226742    -0.74000
O814        O  0.86870270  0.57292349  0.71889182    -0.74000
O815        O  0.85903575  0.62710151  0.79480182    -0.74000
O816        O  0.86315342  0.63132804  0.72240378    -0.73900
O817        O  0.86511583  0.56884694  0.78998311    -0.74000
Ni818      Ni  0.91332403  0.60466326  0.76040160     1.25400
Ni819      Ni  0.86231326  0.60007083  0.75630573     1.25400
C820        C  0.88947791  0.56060978  0.80259776     0.88300
C821        C  0.88666165  0.64370557  0.71296143     0.88200
C822        C  0.88142900  0.63676770  0.81058706     0.88200
C823        C  0.89401007  0.56545923  0.70878094     0.88400
C824        C  0.86468644  0.97124794  0.00639028    -0.02000
O825        O  0.85562737  0.09687984  0.72462827    -0.73900
O826        O  0.85869819  0.16067023  0.78969520    -0.73900
O827        O  0.86078206  0.15494767  0.71884344    -0.74000
O828        O  0.85252341  0.10279806  0.79653652    -0.74000
O829        O  0.90027463  0.09873469  0.80049733    -0.74000
O830        O  0.90854575  0.15005520  0.72099569    -0.74000
O831        O  0.90648910  0.15603221  0.79191090    -0.73900
O832        O  0.90327683  0.09178584  0.72832356    -0.74000
Ni833      Ni  0.85521460  0.12881477  0.75727959     1.25400
Ni834      Ni  0.90630717  0.12380283  0.76046128     1.25400
C835        C  0.87906769  0.08431612  0.71499086     0.88300
C836        C  0.88332000  0.16891664  0.80132296     0.88200
C837        C  0.88588680  0.16163484  0.70757669     0.88200
C838        C  0.87496070  0.09341207  0.81253964     0.88400
O839        O  0.87613009  0.39324546  0.97584663    -0.73900
O840        O  0.87758705  0.33337902  0.54488793    -0.73900
O841        O  0.87682777  0.39231142  0.54642261    -0.74000
O842        O  0.87732474  0.33485678  0.97276356    -0.74000
O843        O  0.92533009  0.33503097  0.97108688    -0.74000
O844        O  0.92483933  0.39271854  0.54643627    -0.74000
O845        O  0.92560130  0.33322914  0.54454084    -0.73900
O846        O  0.92411389  0.39436980  0.97420180    -0.74000
Ni847      Ni  0.87608569  0.36277944  0.00987823     1.25400
Ni848      Ni  0.92659771  0.36389311  0.50984819     1.25400
C849        C  0.89950101  0.40414120  0.96404843     0.88300
C850        C  0.90159670  0.32279435  0.55546136     0.88200
C851        C  0.90070951  0.40270357  0.55761532     0.88200
C852        C  0.90107321  0.32533801  0.96006400     0.88400
C853        C  0.85803471  0.79053442  0.00109790    -0.02000
O854        O  0.66608802  0.78280748  0.78440861    -0.73900
O855        O  0.72466625  0.77585136  0.71401359    -0.73900
O856        O  0.72428645  0.77568140  0.78583696    -0.74000
O857        O  0.66650344  0.78281851  0.71370548    -0.74000
O858        O  0.67304060  0.83026899  0.71218723    -0.74000
O859        O  0.72877230  0.82339508  0.78728584    -0.74000
O860        O  0.73166433  0.82325991  0.71552325    -0.73900
O861        O  0.67089346  0.83052185  0.78339244    -0.74000
Ni862      Ni  0.69533096  0.77760800  0.74946524     1.25400
Ni863      Ni  0.70140324  0.82856470  0.74951154     1.25400
C864        C  0.65847900  0.80784347  0.79494475     0.88300
C865        C  0.73770997  0.79837511  0.70305963     0.88200
C866        C  0.73528261  0.79839327  0.79928359     0.88200
C867        C  0.65986178  0.80767960  0.70147566     0.88400
C868        C  0.06124892  0.81032981  0.49372666    -0.02000
O869        O  0.19413160  0.79858274  0.77931891    -0.73900
O870        O  0.25394582  0.80083554  0.70971285    -0.73900
O871        O  0.25265615  0.79951181  0.78078540    -0.74000
O872        O  0.19480631  0.80047812  0.70724269    -0.74000
O873        O  0.19516796  0.84837947  0.70767935    -0.74000
O874        O  0.25196621  0.84742860  0.78191665    -0.74000
O875        O  0.25407140  0.84875331  0.71134698    -0.73900
O876        O  0.19304093  0.84650515  0.78044775    -0.74000
Ni877      Ni  0.22375546  0.79818854  0.74408568     1.25400
Ni878      Ni  0.22328623  0.84946616  0.74533836     1.25400
C879        C  0.18452575  0.82207713  0.79235930     0.88300
C880        C  0.26476057  0.82496740  0.70027865     0.88200
C881        C  0.26225793  0.82340714  0.79288883     0.88200
C882        C  0.18585811  0.82465261  0.69485808     0.88400
O883        O  0.42988742  0.80207636  0.96411227    -0.73900
O884        O  0.49193332  0.79984010  0.53076666    -0.73900
O885        O  0.43356395  0.80212857  0.53555761    -0.74000
O886        O  0.48857881  0.79932012  0.96079172    -0.74000
O887        O  0.49110969  0.84719754  0.95938788    -0.74000
O888        O  0.43520476  0.85004261  0.53502728    -0.74000
O889        O  0.49405193  0.84772323  0.52995589    -0.73900
O890        O  0.43211946  0.84991926  0.96219067    -0.74000
Ni891      Ni  0.46067989  0.79968246  0.99788991     1.25400
Ni892      Ni  0.46260771  0.85028577  0.49685112     1.25400
C893        C  0.42066811  0.82617908  0.95212790     0.88300
C894        C  0.50352736  0.82338026  0.54100766     0.88200
C895        C  0.42529394  0.82644911  0.54764449     0.88200
C896        C  0.49957325  0.82249726  0.94857901     0.88400
C897        C  0.83701752  0.94578643  0.50459045    -0.02000
O898        O  0.64534757  0.96699810  0.71669326    -0.73900
O899        O  0.70316735  0.97058281  0.78914731    -0.73900
O900        O  0.70372120  0.96861585  0.71725934    -0.74000
O901        O  0.64449982  0.96898302  0.78783442    -0.74000
O902        O  0.64471990  0.92103009  0.78822840    -0.74000
O903        O  0.70674383  0.92083496  0.72081024    -0.74000
O904        O  0.70314425  0.92270019  0.79265177    -0.73900
O905        O  0.64768289  0.91909934  0.71756172    -0.74000
Ni906      Ni  0.67426409  0.97049247  0.75266449     1.25400
Ni907      Ni  0.67579016  0.91921396  0.75483626     1.25400
C908        C  0.63664082  0.94247849  0.70564836     0.88300
C909        C  0.71187904  0.94720586  0.80364056     0.88200
C910        C  0.71476632  0.94473911  0.70711295     0.88200
C911        C  0.63430179  0.94503681  0.79892554     0.88400
C912        C  0.05060860  0.96307973  0.00301540    -0.02000
O913        O  0.23646419  0.98595064  0.78548022    -0.73900
O914        O  0.17223633  0.99100468  0.72156500    -0.73900
O915        O  0.17886804  0.99382894  0.79317085    -0.74000
O916        O  0.23039070  0.98379079  0.71522656    -0.74000
O917        O  0.22418747  0.93629782  0.71680962    -0.74000
O918        O  0.17459490  0.94624044  0.79764726    -0.74000
O919        O  0.16596645  0.94364281  0.72589687    -0.73900
O920        O  0.23142010  0.93827799  0.78706147    -0.74000
Ni921      Ni  0.20449188  0.99032783  0.75363180     1.25400
Ni922      Ni  0.19858566  0.93944222  0.75684454     1.25400
C923        C  0.24464981  0.96111535  0.79637424     0.88300
C924        C  0.15877921  0.96803464  0.71277490     0.88200
C925        C  0.16974634  0.97162850  0.80965418     0.88200
C926        C  0.23678513  0.95856614  0.70413423     0.88400
O927        O  0.46549997  0.91449398  0.53922833    -0.73900
O928        O  0.40714290  0.91988853  0.96720972    -0.73900
O929        O  0.46589851  0.91678822  0.96717431    -0.74000
O930        O  0.40627764  0.91733387  0.53904934    -0.74000
O931        O  0.40876160  0.96517527  0.54077263    -0.74000
O932        O  0.46812299  0.96457325  0.97091758    -0.74000
O933        O  0.40962601  0.96767172  0.97102375    -0.73900
O934        O  0.46748328  0.96238351  0.54042523    -0.74000
Ni935      Ni  0.43581973  0.91510428  0.50352894     1.25400
Ni936      Ni  0.43883209  0.96578957  0.00650399     1.25400
C937        C  0.47662777  0.93783445  0.55092024     0.88300
C938        C  0.39862769  0.94498746  0.95765552     0.88200
C939        C  0.47685439  0.94085112  0.95752053     0.88200
C940        C  0.39737196  0.94153415  0.55107377     0.88400
C941        C  0.04096356  0.77831345  0.49690578    -0.02000
O942        O  0.02524029  0.64557464  0.78766345    -0.73900
O943        O  0.02252614  0.59161627  0.71105838    -0.73900
O944        O  0.02344575  0.58773724  0.78190835    -0.74000
O945        O  0.02416040  0.64986307  0.71536748    -0.74000
O946        O  0.07211387  0.64805217  0.71323959    -0.74000
O947        O  0.07149727  0.58695803  0.78205522    -0.74000
O948        O  0.07052954  0.58948618  0.71113973    -0.73900
O949        O  0.07323775  0.64541592  0.78569619    -0.74000
Ni950      Ni  0.02217769  0.61896637  0.74902115     1.25400
Ni951      Ni  0.07356706  0.61761985  0.74798579     1.25400
C952        C  0.04962572  0.65349693  0.80021568     0.88300
C953        C  0.04613390  0.58096386  0.69928098     0.88200
C954        C  0.04728799  0.57684671  0.79254562     0.88200
C955        C  0.04807755  0.65837699  0.70212284     0.88400
C956        C  0.01861050  0.98319665  0.49357498    -0.02000
O957        O  0.04815275  0.17206481  0.71148507    -0.73900
O958        O  0.04422215  0.11069580  0.77901008    -0.73900
O959        O  0.04369016  0.11397592  0.70723345    -0.74000
O960        O  0.04837934  0.16936078  0.78272286    -0.74000
O961        O  0.00058101  0.17407362  0.78150801    -0.74000
O962        O  0.99572863  0.11596259  0.70950211    -0.74000
O963        O  0.99646235  0.11594856  0.78139317    -0.73900
O964        O  0.00016990  0.17484293  0.71061789    -0.74000
Ni965      Ni  0.04780700  0.14127014  0.74511035     1.25400
Ni966      Ni  0.99653335  0.14519443  0.74569305     1.25400
C967        C  0.02486745  0.18382980  0.70033661     0.88300
C968        C  0.01976309  0.10396017  0.79217881     0.88200
C969        C  0.01896003  0.10595942  0.69582815     0.88200
C970        C  0.02518174  0.18146358  0.79384673     0.88400
O971        O  0.05851699  0.34847005  0.96421306    -0.73900
O972        O  0.06096210  0.41134805  0.53236078    -0.73900
O973        O  0.05895910  0.35270752  0.53670423    -0.74000
O974        O  0.06057866  0.40701676  0.95827368    -0.74000
O975        O  0.01255605  0.40869406  0.95705741    -0.74000
O976        O  0.01096658  0.35511521  0.53570496    -0.74000
O977        O  0.01301131  0.41372289  0.53013419    -0.73900
O978        O  0.01051887  0.35026036  0.96342665    -0.74000
Ni979      Ni  0.06083407  0.38016075  0.99672347     1.25400
Ni980      Ni  0.01110269  0.38218845  0.49737976     1.25400
C981        C  0.03428887  0.33869063  0.95336602     0.88300
C982        C  0.03713864  0.42314809  0.54174770     0.88200
C983        C  0.03437850  0.34464179  0.54836684     0.88200
C984        C  0.03704900  0.41691621  0.94529880     0.88400
O985        O  0.02475662  0.85348077  0.49334217    -0.73900
O986        O  0.00951711  0.92826729  0.45037465    -0.73900
O987        O  0.99416724  0.87589881  0.43498556    -0.74000
O988        O  0.03403739  0.91357447  0.50665331    -0.74000
O989        O  0.06288003  0.92206784  0.96237995    -0.74000
O990        O  0.03225400  0.85598257  0.91114868    -0.74000
O991        O  0.02958965  0.91500090  0.90219900    -0.73900
O992        O  0.06610469  0.85963571  0.96677401    -0.74000
Ni993      Ni  0.01364776  0.89219864  0.47328033     1.25400
Ni994      Ni  0.05076100  0.88845936  0.93396620     1.25400
C995        C  0.04915838  0.84242821  0.98432975     0.88300
C996        C  0.01090378  0.93051805  0.91813834     0.88200
C997        C  0.00537085  0.85487778  0.41986548     0.88200
C998        C  0.05043851  0.93130757  0.49085683     0.88400
O999        O  0.90694386  0.97969472  0.96585465    -0.73900
O1000       O  0.97170573  0.96262273  0.90399445    -0.73900
O1001       O  0.90886848  0.95540342  0.90463849    -0.74000
O1002       O  0.96872453  0.98676541  0.96742913    -0.74000
O1003       O  0.97625860  0.94540638  0.49234056    -0.74000
O1004       O  0.92257603  0.91308050  0.42517387    -0.74000
O1005       O  0.96676260  0.91842836  0.42219536    -0.73900
O1006       O  0.91298442  0.94010509  0.49644321    -0.74000
Ni1007     Ni  0.93896545  0.97285589  0.93446009     1.25400
Ni1008     Ni  0.94477332  0.92822216  0.46222116     1.25400
C1009       C  0.89700220  0.96245787  0.48928232     0.88300
C1010       C  0.98176759  0.93675611  0.40644158     0.88200
C1011       C  0.90359238  0.92857916  0.90964303     0.88200
C1012       C  0.98576335  0.97045385  0.98618217     0.88400
O1013       O  0.99395993  0.77005002  0.96476758    -0.73900
O1014       O  0.92666360  0.80146842  0.91873724    -0.73900
O1015       O  0.98463110  0.80719286  0.91520035    -0.74000
O1016       O  0.92946898  0.76318129  0.96900699    -0.74000
O1017       O  0.92981313  0.79046442  0.51593709    -0.74000
O1018       O  0.98161778  0.83411605  0.46379848    -0.74000
O1019       O  0.92701066  0.82757326  0.46799992    -0.73900
O1020       O  0.99238117  0.79802914  0.51122013    -0.74000
Ni1021     Ni  0.95886652  0.78289043  0.94090068     1.25400
Ni1022     Ni  0.95773641  0.81304863  0.49151390     1.25400
C1023       C  0.00760323  0.78290359  0.49025484     0.88300
C1024       C  0.91686952  0.82161315  0.43784988     0.88200
C1025       C  0.99079221  0.82991595  0.93194442     0.88200
C1026       C  0.91607642  0.77325803  0.99646725     0.88400
O1027       O  0.86256940  0.89873895  0.51592968    -0.73900
O1028       O  0.90487052  0.86639203  0.44128770    -0.73900
O1029       O  0.88092015  0.91564361  0.45731513    -0.74000
O1030       O  0.88381525  0.84015738  0.50221210    -0.74000
O1031       O  0.84025303  0.83821520  0.97833912    -0.74000
O1032       O  0.86037850  0.89828030  0.91042923    -0.74000
O1033       O  0.87012715  0.84005038  0.92006811    -0.73900
O1034       O  0.82886401  0.89887255  0.97342472    -0.74000
Ni1035     Ni  0.88512565  0.88003922  0.48112855     1.25400
Ni1036     Ni  0.84689675  0.86861740  0.94423957     1.25400
C1037       C  0.84163988  0.91240948  0.99931497     0.88300
C1038       C  0.89683086  0.84398203  0.92603940     0.88200
C1039       C  0.87693812  0.91658203  0.42490240     0.88200
C1040       C  0.86196723  0.82420098  0.49451198     0.88400
C1041       C  0.01759859  0.28132388  0.89339007     0.20900
C1042       C  0.00007915  0.26461404  0.87138833    -0.39000
C1043       C  0.01374909  0.24168542  0.85396245     0.19800
C1044       C  0.04290210  0.23611106  0.85753761     0.22500
C1045       C  0.06058119  0.25307639  0.87934910    -0.39500
C1046       C  0.04675286  0.27585715  0.89716292     0.21300
N1047       N  0.00955425  0.30418470  0.91278871    -0.32800
C1048       C  0.03371551  0.31365197  0.92910559    -0.10400
C1049       C  0.05741464  0.29648218  0.91992830    -0.29200
N1050       N  0.05079704  0.21367268  0.83714515    -0.45800
C1051       C  0.02644668  0.20479037  0.82055842    -0.05000
C1052       C  0.00292255  0.22176686  0.83059924    -0.22400
H1053       H  0.97750834  0.26952372  0.86765047     0.19400
H1054       H  0.08344303  0.24896244  0.88208755     0.18200
H1055       H  0.07945048  0.29875141  0.92878163     0.14500
H1056       H  0.98092139  0.22019162  0.82136924     0.14300
H1057       H  0.98886524  0.31297776  0.91461433     0.32500
H1058       H  0.07154216  0.20519817  0.83429212     0.35300
C1059       C  0.01503127  0.24763319  0.64866511     0.20900
C1060       C  0.00023327  0.27151801  0.63475293    -0.39000
C1061       C  0.01649800  0.28992038  0.61328338     0.19800
C1062       C  0.04547732  0.28522551  0.60684087     0.22500
C1063       C  0.06036872  0.26155294  0.62108961    -0.39500
C1064       C  0.04399203  0.24292747  0.64211383     0.21300
N1065       N  0.00433850  0.22675340  0.66936719    -0.32800
C1066       C  0.02666889  0.20867644  0.67622336    -0.10400
C1067       C  0.05177831  0.21809362  0.65967122    -0.29200
N1068       N  0.05576274  0.30501087  0.58436075    -0.45800
C1069       C  0.03310908  0.32219837  0.57585946    -0.05000
C1070       C  0.00826999  0.31360895  0.59367930    -0.22400
H1071       H  0.97764241  0.27535128  0.63993705     0.19400
H1072       H  0.08295009  0.25766509  0.61572676     0.18200
H1073       H  0.07295634  0.20829677  0.66074092     0.14500
H1074       H  0.98685382  0.32272896  0.59144045     0.14300
H1075       H  0.98332205  0.22524778  0.67896806     0.32500
H1076       H  0.07661112  0.30591415  0.57410245     0.35300
C1077       C  0.02749084  0.04763884  0.85606956     0.20900
C1078       C  0.03737773  0.02160036  0.87104261    -0.39000
C1079       C  0.02861300  0.01631784  0.90588376     0.19800
C1080       C  0.01239068  0.03600079  0.92435064     0.22500
C1081       C  0.00162997  0.06129363  0.90915355    -0.39500
C1082       C  0.00954135  0.06616543  0.87427560     0.21300
N1083       N  0.03341653  0.05845873  0.82401060    -0.32800
C1084       C  0.01841118  0.08355131  0.82175060    -0.10400
C1085       C  0.00314399  0.08891614  0.85247966    -0.29200
N1086       N  0.00838397  0.02720194  0.95737201    -0.45800
C1087       C  0.02213648  0.00135558  0.96117851    -0.05000
C1088       C  0.03369464  0.99333657  0.92837240    -0.22400
H1089       H  0.05100207  0.00673252  0.85679324     0.19400
H1090       H  0.98833083  0.07630574  0.92364816     0.18200
H1091       H  0.99013211  0.10761959  0.85857786     0.14500
H1092       H  0.04579776  0.97412491  0.92223770     0.14300
H1093       H  0.04684291  0.04946247  0.80494671     0.32500
H1094       H  0.99546524  0.03784711  0.97568278     0.35300
C1095       C  0.02518904  0.06901770  0.61335555     0.20900
C1096       C  0.03444435  0.06525019  0.57860133    -0.39000
C1097       C  0.02383273  0.04092316  0.56114536     0.19800
C1098       C  0.00597968  0.02116883  0.57708780     0.22500
C1099       C  0.99641086  0.02507845  0.61202093    -0.39500
C1100       C  0.00639942  0.05005450  0.62935823     0.21300
N1101       N  0.03226874  0.09058544  0.63521519    -0.32800
C1102       C  0.01749648  0.08602643  0.66537768    -0.10400
C1103       C  0.00092865  0.06094107  0.66271976    -0.29200
N1104       N  0.00063474  0.99890491  0.55511653    -0.45800
C1105       C  0.01492796  0.00462386  0.52461235    -0.05000
C1106       C  0.02950206  0.03096059  0.52791170    -0.22400
H1107       H  0.04899460  0.08019586  0.56601980     0.19400
H1108       H  0.98229737  0.00983110  0.62477136     0.18200
H1109       H  0.98699699  0.05181247  0.68255432     0.14500
H1110       H  0.04388810  0.04085978  0.50918273     0.14300
H1111       H  0.04589842  0.10783279  0.62968134     0.32500
H1112       H  0.98882083  0.98044299  0.56094700     0.35300
C1113       C  0.05386162  0.48036352  0.60168418     0.20900
C1114       C  0.07135228  0.49683668  0.62401108    -0.39000
C1115       C  0.05790308  0.52037204  0.64036158     0.19800
C1116       C  0.02913629  0.52699624  0.63505010     0.22500
C1117       C  0.01161302  0.51055127  0.61256841    -0.39500
C1118       C  0.02509318  0.48691435  0.59620039     0.21300
N1119       N  0.06162013  0.45690876  0.58326065    -0.32800
C1120       C  0.03766963  0.44817199  0.56590685    -0.10400
C1121       C  0.01438169  0.46640753  0.57335898    -0.29200
N1122       N  0.02132559  0.54983391  0.65468673    -0.45800
C1123       C  0.04533901  0.55788520  0.67251689    -0.05000
C1124       C  0.06858851  0.54003774  0.66409184    -0.22400
H1125       H  0.09378873  0.49157150  0.62853722     0.19400
H1126       H  0.98909949  0.51564796  0.60836295     0.18200
H1127       H  0.99263733  0.46498707  0.56323075     0.14500
H1128       H  0.09018272  0.54076745  0.67479405     0.14300
H1129       H  0.08202947  0.44737044  0.58257874     0.32500
H1130       H  0.00080917  0.55904970  0.65633532     0.35300
C1131       C  0.05517661  0.47212283  0.88366215     0.20900
C1132       C  0.07334307  0.49183126  0.86660080    -0.39000
C1133       C  0.05944623  0.51402851  0.84802220     0.19800
C1134       C  0.02974029  0.51625316  0.84642666     0.22500
C1135       C  0.01161120  0.49643053  0.86316517    -0.39500
C1136       C  0.02546045  0.47438423  0.88198197     0.21300
N1137       N  0.06304269  0.45038168  0.90498204    -0.32800
C1138       C  0.03818849  0.43889669  0.91732232    -0.10400
C1139       C  0.01426283  0.45309707  0.90318826    -0.29200
N1140       N  0.02177176  0.53924433  0.82729309    -0.45800
C1141       C  0.04655084  0.55179343  0.81639882    -0.05000
C1142       C  0.07055383  0.53669971  0.82889564    -0.22400
H1143       H  0.09658353  0.49030018  0.86821935     0.19400
H1144       H  0.98843759  0.49835729  0.86192604     0.18200
H1145       H  0.99177957  0.44938285  0.90912931     0.14500
H1146       H  0.09304078  0.54140540  0.82415832     0.14300
H1147       H  0.08404523  0.44460152  0.91201141     0.32500
H1148       H  0.00071144  0.54575734  0.82156984     0.35300
C1149       C  0.03122291  0.73704545  0.57865737     0.20900
C1150       C  0.01527993  0.72253242  0.60452557    -0.39000
C1151       C  0.03132346  0.70690392  0.62933309     0.19800
C1152       C  0.06108019  0.70558387  0.62841825     0.22500
C1153       C  0.07705601  0.71969589  0.60192694    -0.39500
C1154       C  0.06086926  0.73544578  0.57697120     0.21300
N1155       N  0.02065877  0.75308178  0.55225281    -0.32800
C1156       C  0.04354075  0.76237981  0.53276533    -0.10400
C1157       C  0.06909395  0.75088872  0.54735180    -0.29200
N1158       N  0.07108657  0.68888436  0.65486482    -0.45800
C1159       C  0.04749096  0.67947475  0.67266192    -0.05000
C1160       C  0.02233132  0.69032037  0.65732938    -0.22400
H1161       H  0.99196709  0.72334635  0.60524773     0.19400
H1162       H  0.10031993  0.71837789  0.60071916     0.18200
H1163       H  0.09075436  0.75334727  0.53730487     0.14500
H1164       H  0.00032099  0.68606309  0.66510850     0.14300
H1165       H  0.99870288  0.75595601  0.54753641     0.32500
H1166       H  0.09259382  0.68367449  0.66000382     0.35300
C1167       C  0.06559092  0.69727598  0.87584311     0.20900
C1168       C  0.08121005  0.71648350  0.89716352    -0.39000
C1169       C  0.06734482  0.72546325  0.92823261     0.19800
C1170       C  0.04078042  0.71542127  0.93792707     0.22500
C1171       C  0.02540012  0.69574332  0.91717688    -0.39500
C1172       C  0.03859392  0.68755311  0.88549441     0.21300
N1173       N  0.07298193  0.68686885  0.84399818    -0.32800
C1174       C  0.05032505  0.67071801  0.83306657    -0.10400
C1175       C  0.02851758  0.67070175  0.85834884    -0.29200
N1176       N  0.03106632  0.72976988  0.96614633    -0.45800
C1177       C  0.04939756  0.75225955  0.97232203    -0.05000
C1178       C  0.07425053  0.74689211  0.95175080    -0.22400
H1179       H  0.10177611  0.72519018  0.88910873     0.19400
H1180       H  0.00394119  0.68870422  0.92413446     0.18200
H1181       H  0.00813242  0.65950905  0.85720645     0.14500
H1182       H  0.09519481  0.75637348  0.95273985     0.14300
H1183       H  0.09214088  0.69068413  0.83041697     0.32500
H1184       H  0.01184552  0.72511078  0.97918754     0.35300
C1185       C  0.34122659  0.95980873  0.61196745     0.20900
C1186       C  0.32451041  0.97816583  0.63297941    -0.39000
C1187       C  0.29988793  0.96592423  0.64820789     0.19800
C1188       C  0.29248655  0.93742331  0.64337709     0.22500
C1189       C  0.30908605  0.91907941  0.62192732    -0.39500
C1190       C  0.33377529  0.93139939  0.60647047     0.21300
N1191       N  0.36510870  0.96665694  0.59381663    -0.32800
C1192       C  0.37314768  0.94250708  0.57643244    -0.10400
C1193       C  0.35406885  0.92002352  0.58366780    -0.29200
N1194       N  0.26845925  0.93095901  0.66178356    -0.45800
C1195       C  0.26039171  0.95571407  0.67806085    -0.05000
C1196       C  0.27948651  0.97790231  0.67000084    -0.22400
H1197       H  0.33018329  0.00046797  0.63703564     0.19400
H1198       H  0.30312109  0.89692701  0.61741066     0.18200
H1199       H  0.35431816  0.89861236  0.57264616     0.14500
H1200       H  0.27908457  0.99971382  0.67985636     0.07900
H1201       H  0.37500316  0.98677941  0.59272770     0.32500
H1202       H  0.25851739  0.91090069  0.66366925     0.35300
C1203       C  0.34089436  0.93718602  0.89613303     0.20900
C1204       C  0.31949955  0.92272250  0.87718483    -0.39000
C1205       C  0.30214192  0.93990417  0.85553236     0.19800
C1206       C  0.30522116  0.96944644  0.85357090     0.22500
C1207       C  0.32629749  0.98405965  0.87302770    -0.39500
C1208       C  0.34407174  0.96673095  0.89423847     0.21300
N1209       N  0.36008603  0.92563657  0.91857320    -0.32800
C1210       C  0.37561871  0.94797370  0.93118049    -0.10400
C1211       C  0.36618922  0.97397992  0.91669266    -0.29200
N1212       N  0.28530383  0.98091439  0.83196463    -0.45800
C1213       C  0.26953306  0.95843428  0.82011821    -0.05000
C1214       C  0.27949215  0.93251025  0.83412722    -0.22400
H1215       H  0.31605220  0.89987108  0.87974702     0.19400
H1216       H  0.32857344  0.00719699  0.87190726     0.18200
H1217       H  0.37424555  0.99532310  0.92213688     0.14500
H1218       H  0.27098413  0.91117711  0.82969380     0.14300
H1219       H  0.36208439  0.90397925  0.92542475     0.32500
H1220       H  0.28238799  0.00266843  0.82600583     0.35300
C1221       C  0.08192720  0.98143491  0.58807719     0.20900
C1222       C  0.09882820  0.99825504  0.61068908    -0.39000
C1223       C  0.10974990  0.98423266  0.64054287     0.19800
C1224       C  0.10448892  0.95548087  0.64718760     0.22500
C1225       C  0.08720674  0.93875766  0.62468311    -0.39500
C1226       C  0.07597837  0.95299013  0.59495278     0.21300
N1227       N  0.07241487  0.98881795  0.55604612    -0.32800
C1228       C  0.05938928  0.96532441  0.54173824    -0.10400
C1229       C  0.06139040  0.94241025  0.56602126    -0.29200
N1230       N  0.12013136  0.94638396  0.67493619    -0.45800
C1231       C  0.13549972  0.96948798  0.68604510    -0.05000
C1232       C  0.12922833  0.99358161  0.66543113    -0.22400
H1233       H  0.10424749  0.02031819  0.60455626     0.19400
H1234       H  0.08394621  0.91599634  0.62905093     0.18200
H1235       H  0.05536694  0.92020534  0.56264802     0.14500
H1236       H  0.13919594  0.01455196  0.66683035     0.14300
H1237       H  0.07752657  0.00802055  0.54335375     0.32500
H1238       H  0.12146089  0.92535912  0.68452019     0.35300
C1239       C  0.14326212  0.96711093  0.89817819     0.20900
C1240       C  0.13827175  0.95390499  0.93075967    -0.39000
C1241       C  0.11920017  0.96827292  0.95343635     0.19800
C1242       C  0.10628814  0.99404581  0.94476515     0.22500
C1243       C  0.11240377  0.00806656  0.91267115    -0.39500
C1244       C  0.13119022  0.99342523  0.88956554     0.21300
N1245       N  0.15762545  0.95592562  0.87066822    -0.32800
C1246       C  0.15516404  0.97525677  0.84413396    -0.10400
C1247       C  0.13906976  0.99918911  0.85508848    -0.29200
N1248       N  0.08373500  0.99927910  0.96632465    -0.45800
C1249       C  0.07955757  0.97480412  0.98557221    -0.05000
C1250       C  0.10437535  0.95741040  0.98167241    -0.22400
H1251       H  0.14646915  0.93261251  0.93665719     0.19400
H1252       H  0.10119667  0.02749139  0.90481414     0.18200
H1253       H  0.13324206  0.01786085  0.83961112     0.14500
H1254       H  0.10797090  0.93635325  0.99308950     0.14300
H1255       H  0.16853955  0.93624676  0.86998424     0.32500
H1256       H  0.07161862  0.01803082  0.96589669     0.35300
C1257       C  0.57273328  0.93043293  0.85298181     0.20900
C1258       C  0.55010181  0.91402190  0.86705832    -0.39000
C1259       C  0.53222539  0.92812825  0.89131591     0.19800
C1260       C  0.53620398  0.95664411  0.90029584     0.22500
C1261       C  0.55850489  0.97325449  0.88572885    -0.39500
C1262       C  0.57661053  0.95901566  0.86176216     0.21300
N1263       N  0.59302730  0.92175681  0.83006314    -0.32800
C1264       C  0.60984670  0.94502823  0.82383803    -0.10400
C1265       C  0.60019096  0.96873669  0.84307586    -0.29200
N1266       N  0.51663154  0.96489812  0.92434444    -0.45800
C1267       C  0.50019359  0.94142195  0.93104570    -0.05000
C1268       C  0.50919116  0.91809442  0.91074346    -0.22400
H1269       H  0.54665012  0.89185276  0.85972802     0.19400
H1270       H  0.56167692  0.99555522  0.89277397     0.18200
H1271       H  0.60922539  0.99015777  0.84336999     0.14500
H1272       H  0.50025086  0.89664087  0.91052251     0.14300
H1273       H  0.59509199  0.90132382  0.81897759     0.32500
H1274       H  0.51494894  0.98512598  0.93606023     0.35300
C1275       C  0.57643622  0.92564169  0.65008153     0.20900
C1276       C  0.55414528  0.90875930  0.63583989    -0.39000
C1277       C  0.53504528  0.92303667  0.61291822     0.19800
C1278       C  0.53777963  0.95201390  0.60540030     0.22500
C1279       C  0.55977725  0.96891068  0.61986248    -0.39500
C1280       C  0.57895276  0.95461493  0.64242828     0.21300
N1281       N  0.59724858  0.91734127  0.67266259    -0.32800
C1282       C  0.61293803  0.94128035  0.67966070    -0.10400
C1283       C  0.60211234  0.96493438  0.66123054    -0.29200
N1284       N  0.51709067  0.96067501  0.58310490    -0.45800
C1285       C  0.50098698  0.93713395  0.57594310    -0.05000
C1286       C  0.51150969  0.91311587  0.59409339    -0.22400
H1287       H  0.55173425  0.88623959  0.64227785     0.19400
H1288       H  0.56177191  0.99160020  0.61400669     0.18200
H1289       H  0.60981669  0.98686365  0.66201604     0.14500
H1290       H  0.50318517  0.89141451  0.59346090     0.14300
H1291       H  0.60012935  0.89683598  0.68337896     0.32500
H1292       H  0.51436514  0.98137569  0.57289772     0.35300
C1293       C  0.76858015  0.95376716  0.86741704     0.20900
C1294       C  0.79668550  0.95844099  0.88022386    -0.39000
C1295       C  0.80055127  0.95457395  0.91660929     0.19800
C1296       C  0.77820377  0.94698098  0.93846615     0.22500
C1297       C  0.75027698  0.94178625  0.92568445    -0.39500
C1298       C  0.74637482  0.94543907  0.88938575     0.21300
N1299       N  0.75919696  0.95586311  0.83396737    -0.32800
C1300       C  0.73093302  0.94844325  0.83469043    -0.10400
C1301       C  0.72219826  0.94178255  0.86875444    -0.29200
N1302       N  0.78738605  0.94463083  0.97182109    -0.45800
C1303       C  0.81595778  0.95175295  0.97232337    -0.05000
C1304       C  0.82486774  0.95664763  0.93741767    -0.22400
H1305       H  0.81427227  0.96448189  0.86312751     0.19400
H1306       H  0.73283229  0.93535436  0.94279014     0.18200
H1307       H  0.70095759  0.93521986  0.87724422     0.14500
H1308       H  0.84612639  0.96256835  0.92858125     0.14300
H1309       H  0.77131308  0.96154398  0.81195030     0.32500
H1310       H  0.77494516  0.93664026  0.99241543     0.35300
C1311       C  0.80194980  0.93741281  0.59074212     0.20900
C1312       C  0.79670190  0.92498519  0.62397437    -0.39000
C1313       C  0.77216942  0.93526943  0.64198550     0.19800
C1314       C  0.75484179  0.95676140  0.62814577     0.22500
C1315       C  0.75987339  0.96876256  0.59491435    -0.39500
C1316       C  0.78384790  0.95804565  0.57674130     0.21300
N1317       N  0.82330324  0.93112618  0.56796092    -0.32800
C1318       C  0.81848590  0.94730250  0.53854657    -0.10400
C1319       C  0.79388264  0.96449998  0.54369458    -0.29200
N1320       N  0.73304505  0.96305992  0.65003728    -0.45800
C1321       C  0.73583565  0.94514001  0.67791360    -0.05000
C1322       C  0.76000031  0.92729341  0.67385506    -0.22400
H1323       H  0.81041018  0.90827402  0.63473625     0.19400
H1324       H  0.74584823  0.98503612  0.58377347     0.18200
H1325       H  0.78461871  0.97999388  0.52566382     0.14500
H1326       H  0.76757421  0.91078359  0.69170076     0.14300
H1327       H  0.83996884  0.91640747  0.57228767     0.32500
H1328       H  0.71664533  0.97811827  0.64578311     0.35300
C1329       C  0.32395237  0.83749632  0.84761395     0.20900
C1330       C  0.34778968  0.85311030  0.86018959    -0.39000
C1331       C  0.36465065  0.83948361  0.88607099     0.19800
C1332       C  0.35876759  0.81194874  0.89769665     0.22500
C1333       C  0.33533028  0.79602531  0.88453416    -0.39500
C1334       C  0.31813978  0.80989205  0.85908287     0.21300
N1335       N  0.30439901  0.84596013  0.82349341    -0.32800
C1336       C  0.28612667  0.82349065  0.81900329    -0.10400
C1337       C  0.29411372  0.80052188  0.84075591    -0.29200
N1338       N  0.37808576  0.80373376  0.92221812    -0.45800
C1339       C  0.39629556  0.82627048  0.92669664    -0.05000
C1340       C  0.38857818  0.84898887  0.90446165    -0.22400
H1341       H  0.35291524  0.87435311  0.85048117     0.19400
H1342       H  0.33076954  0.77442962  0.89352896     0.18200
H1343       H  0.28382872  0.77973601  0.84274814     0.14500
H1344       H  0.39913510  0.86960266  0.90197999     0.14300
H1345       H  0.30391444  0.86564125  0.81023807     0.32500
H1346       H  0.37863810  0.78405775  0.93547734     0.35300
C1347       C  0.32884496  0.83948502  0.65046549     0.20900
C1348       C  0.35108236  0.85605815  0.63566482    -0.39000
C1349       C  0.37072060  0.84116437  0.61418655     0.19800
C1350       C  0.36887138  0.81179789  0.60898600     0.22500
C1351       C  0.34719805  0.79510266  0.62455837    -0.39500
C1352       C  0.32716177  0.81012321  0.64518206     0.21300
N1353       N  0.30655712  0.84873113  0.67017381    -0.32800
C1354       C  0.29057447  0.82504821  0.67746149    -0.10400
C1355       C  0.30294108  0.80055136  0.66251400    -0.29200
N1356       N  0.38889015  0.80291038  0.58595928    -0.45800
C1357       C  0.40341518  0.82676774  0.57580478    -0.05000
C1358       C  0.39296845  0.85106808  0.59324082    -0.22400
H1359       H  0.35267433  0.87893191  0.64001841     0.19400
H1360       H  0.34550710  0.77220508  0.62000036     0.18200
H1361       H  0.29521436  0.77865690  0.66409617     0.14500
H1362       H  0.39994814  0.87307632  0.58996883     0.14300
H1363       H  0.30256575  0.86979072  0.67836619     0.32500
H1364       H  0.39162189  0.78200869  0.57648700     0.35300
C1365       C  0.11948214  0.80766801  0.92745601     0.20900
C1366       C  0.14791625  0.80934403  0.91468533    -0.39000
C1367       C  0.15092879  0.81364554  0.87827132     0.19800
C1368       C  0.12742812  0.81567253  0.85603564     0.22500
C1369       C  0.09897685  0.81333916  0.86877475    -0.39500
C1370       C  0.09601896  0.80940368  0.90533568     0.21300
N1371       N  0.11096543  0.80502995  0.96118672    -0.32800
C1372       C  0.08148993  0.80630069  0.96139666    -0.10400
C1373       C  0.07177027  0.80754401  0.92632106    -0.29200
N1374       N  0.13611753  0.81983992  0.82253112    -0.45800
C1375       C  0.16537998  0.82057141  0.82350259    -0.05000
C1376       C  0.17533041  0.81660070  0.85777682    -0.22400
H1377       H  0.16638530  0.80800610  0.93197317     0.19400
H1378       H  0.08046968  0.81498198  0.85158842     0.18200
H1379       H  0.04967275  0.80738519  0.91755001     0.14500
H1380       H  0.19753363  0.81556486  0.86642244     0.14300
H1381       H  0.12488509  0.80108710  0.98213006     0.32500
H1382       H  0.12302340  0.82159480  0.80032623     0.35300
C1383       C  0.09452525  0.81801233  0.58218444     0.20900
C1384       C  0.09856859  0.81113200  0.61796921    -0.39000
C1385       C  0.12547294  0.81859721  0.63267632     0.19800
C1386       C  0.14628452  0.83294913  0.61356005     0.22500
C1387       C  0.14210981  0.83993995  0.57783808    -0.39500
C1388       C  0.11564611  0.83138477  0.56291506     0.21300
N1389       N  0.07190108  0.81119304  0.56149769    -0.32800
C1390       C  0.07968400  0.81684750  0.52759560    -0.10400
C1391       C  0.10580189  0.83242342  0.52868550    -0.29200
N1392       N  0.17005891  0.83736125  0.63334785    -0.45800
C1393       C  0.16473585  0.82526035  0.66520980    -0.05000
C1394       C  0.13711771  0.81324095  0.66566541    -0.22400
H1395       H  0.08241908  0.79965739  0.63286820     0.19400
H1396       H  0.15871441  0.85024823  0.56241164     0.18200
H1397       H  0.11673353  0.84299789  0.50722114     0.14500
H1398       H  0.12694105  0.80204793  0.68723928     0.14300
H1399       H  0.05217899  0.80373070  0.57077981     0.32500
H1400       H  0.18910258  0.84733853  0.62538916     0.35300
C1401       C  0.60605123  0.82756258  0.63746812     0.20900
C1402       C  0.59102228  0.84544494  0.61373939    -0.39000
C1403       C  0.56690034  0.83310966  0.59711067     0.19800
C1404       C  0.55870481  0.80499450  0.60339648     0.22500
C1405       C  0.57378564  0.78711489  0.62688818    -0.39500
C1406       C  0.59772821  0.79946365  0.64356350     0.21300
N1407       N  0.62936382  0.83419821  0.65702265    -0.32800
C1408       C  0.63608833  0.81004016  0.67547157    -0.10400
C1409       C  0.61676538  0.78796774  0.66768825    -0.29200
N1410       N  0.53531428  0.79817273  0.58431205    -0.45800
C1411       C  0.52817670  0.82210498  0.56580267    -0.05000
C1412       C  0.54745718  0.84441597  0.57307189    -0.22400
H1413       H  0.59758036  0.86737092  0.60869169     0.19400
H1414       H  0.56732510  0.76513978  0.63184057     0.18200
H1415       H  0.61643856  0.76647774  0.67863598     0.14500
H1416       H  0.54746767  0.86584910  0.56197018     0.14300
H1417       H  0.63998286  0.85395190  0.65784802     0.32500
H1418       H  0.52473111  0.77838733  0.58401165     0.35300
C1419       C  0.56101564  0.83131310  0.89297873     0.20900
C1420       C  0.58476565  0.84545904  0.87808964    -0.39000
C1421       C  0.60242535  0.82861200  0.85640232     0.19800
C1422       C  0.59726563  0.79969428  0.85074635     0.22500
C1423       C  0.57377555  0.78545694  0.86596129    -0.39500
C1424       C  0.55582065  0.80243048  0.88711720     0.21300
N1425       N  0.54104508  0.84245702  0.91465531    -0.32800
C1426       C  0.52306673  0.82047422  0.92270449    -0.10400
C1427       C  0.53163348  0.79517289  0.90603342    -0.29200
N1428       N  0.61702200  0.78851363  0.82890503    -0.45800
C1429       C  0.63470419  0.81053500  0.82022848    -0.05000
C1430       C  0.62634426  0.83591414  0.83692314    -0.22400
H1431       H  0.58925361  0.86789054  0.88302752     0.19400
H1432       H  0.56970831  0.76285033  0.86152887     0.18200
H1433       H  0.52188922  0.77413479  0.90818638     0.14500
H1434       H  0.63613792  0.85692617  0.83464207     0.14300
H1435       H  0.54036281  0.86340076  0.92442175     0.32500
H1436       H  0.61799887  0.76735847  0.81978715     0.35300
C1437       C  0.82430464  0.80016284  0.58686261     0.20900
C1438       C  0.81884458  0.81413113  0.61893802    -0.39000
C1439       C  0.79523469  0.80374122  0.63826937     0.19800
C1440       C  0.77895417  0.78068015  0.62688942     0.22500
C1441       C  0.78430434  0.76693649  0.59479000    -0.39500
C1442       C  0.80735444  0.77781892  0.57513873     0.21300
N1443       N  0.84452000  0.80673123  0.56287672    -0.32800
C1444       C  0.84005272  0.78904076  0.53494617    -0.10400
C1445       C  0.81703054  0.77047645  0.54221428    -0.29200
N1446       N  0.75728602  0.77532881  0.64928962    -0.45800
C1447       C  0.75922463  0.79547591  0.67480439    -0.05000
C1448       C  0.78266546  0.81364625  0.66890144    -0.22400
H1449       H  0.83148221  0.83228147  0.62766241     0.19400
H1450       H  0.77096385  0.74954916  0.58533991     0.18200
H1451       H  0.80827478  0.75391163  0.52544290     0.14500
H1452       H  0.78920890  0.83194432  0.68445822     0.14300
H1453       H  0.86020900  0.82264493  0.56530401     0.32500
H1454       H  0.74132368  0.75971382  0.64655715     0.35300
C1455       C  0.80016515  0.78898685  0.93494009     0.20900
C1456       C  0.77273161  0.79645463  0.92200050    -0.39000
C1457       C  0.76920597  0.79507557  0.88546303     0.19800
C1458       C  0.79124663  0.78650140  0.86337719     0.22500
C1459       C  0.81904453  0.77985973  0.87636192    -0.39500
C1460       C  0.82269239  0.78180898  0.91308015     0.21300
N1461       N  0.80905114  0.79031010  0.96841867    -0.32800
C1462       C  0.83788778  0.78392419  0.96907112    -0.10400
C1463       C  0.84709809  0.77958967  0.93413941    -0.29200
N1464       N  0.78214640  0.78657167  0.82967726    -0.45800
C1465       C  0.75431464  0.79577633  0.83038450    -0.05000
C1466       C  0.74555427  0.80136335  0.86471919    -0.22400
H1467       H  0.75544727  0.80324456  0.93919296     0.19400
H1468       H  0.83666090  0.77415872  0.85910657     0.18200
H1469       H  0.86898919  0.77623201  0.92526578     0.14500
H1470       H  0.72455010  0.80866817  0.87334835     0.14300
H1471       H  0.79639236  0.79849341  0.98871498     0.32500
H1472       H  0.79413286  0.78091670  0.80753860     0.35300
C1473       C  0.90671533  0.21684558  0.64640980     0.20900
C1474       C  0.92557556  0.23580364  0.62895914    -0.39000
C1475       C  0.91255725  0.25896416  0.61090066     0.19800
C1476       C  0.88297330  0.26260469  0.61011652     0.22500
C1477       C  0.86414157  0.24347774  0.62704776    -0.39500
C1478       C  0.87714901  0.22055979  0.64522065     0.21300
N1479       N  0.91369875  0.19444657  0.66738142    -0.32800
C1480       C  0.88838166  0.18392072  0.67978703    -0.10400
C1481       C  0.86512353  0.19951235  0.66611201    -0.29200
N1482       N  0.87576913  0.28602845  0.59129057    -0.45800
C1483       C  0.90079805  0.29765212  0.57964233    -0.05000
C1484       C  0.92433694  0.28130242  0.59139432    -0.22400
H1485       H  0.94866501  0.23280232  0.62961147     0.19400
H1486       H  0.84100631  0.24650988  0.62658547     0.18200
H1487       H  0.84250881  0.19681294  0.67218478     0.14500
H1488       H  0.94687391  0.28484940  0.58570946     0.14300
H1489       H  0.93444317  0.18757523  0.67408221     0.32500
H1490       H  0.85489623  0.29339938  0.58613282     0.35300
C1491       C  0.90399952  0.22486516  0.86121645     0.20900
C1492       C  0.92280932  0.24075066  0.88267836    -0.39000
C1493       C  0.91070491  0.26469444  0.89988149     0.19800
C1494       C  0.88185636  0.27175615  0.89644529     0.22500
C1495       C  0.86297390  0.25565123  0.87533731    -0.39500
C1496       C  0.87517746  0.23198561  0.85780663     0.21300
N1497       N  0.91037258  0.20154992  0.84177408    -0.32800
C1498       C  0.88545288  0.19359148  0.82583918    -0.10400
C1499       C  0.86294819  0.21205932  0.83536274    -0.29200
N1500       N  0.87523031  0.29460307  0.91653366    -0.45800
C1501       C  0.89994319  0.30242128  0.93297898    -0.05000
C1502       C  0.92267616  0.28429347  0.92306018    -0.22400
H1503       H  0.94510642  0.23455081  0.88610322     0.19400
H1504       H  0.84036456  0.26108949  0.87288626     0.18200
H1505       H  0.84073658  0.21119940  0.82677113     0.14500
H1506       H  0.94463897  0.28464423  0.93259288     0.14300
H1507       H  0.93053460  0.19166555  0.83942064     0.32500
H1508       H  0.85487542  0.30395342  0.91949812     0.35300
C1509       C  0.88577107  0.00060622  0.59354917     0.20900
C1510       C  0.90364171  0.01095150  0.62104223    -0.39000
C1511       C  0.89041862  0.03005063  0.64549889     0.19800
C1512       C  0.86171539  0.03789279  0.64265351     0.22500
C1513       C  0.84443913  0.02834038  0.61507479    -0.39500
C1514       C  0.85758144  0.00974485  0.59105963     0.21300
N1515       N  0.89273739  0.98374009  0.56543723    -0.32800
C1516       C  0.86854444  0.98239178  0.54489439    -0.10400
C1517       C  0.84699109  0.99948369  0.56034757    -0.29200
N1518       N  0.85409854  0.05678636  0.66770618    -0.45800
C1519       C  0.87805210  0.06187506  0.68697838    -0.05000
C1520       C  0.90128290  0.04549196  0.67392108    -0.22400
H1521       H  0.92620134  0.00518804  0.62281857     0.19400
H1522       H  0.82234224  0.03547049  0.61197951     0.18200
H1523       H  0.82700993  0.00654453  0.54863402     0.14500
H1524       H  0.92334072  0.04566423  0.68314414     0.14300
H1525       H  0.91301507  0.97514367  0.55975139     0.32500
H1526       H  0.83396894  0.06665374  0.67052738     0.35300
C1527       C  0.87100520  0.03811699  0.95526452     0.20900
C1528       C  0.88993236  0.05382121  0.93364295    -0.39000
C1529       C  0.87902549  0.06238005  0.90076796     0.19800
C1530       C  0.85097916  0.05675386  0.89073836     0.22500
C1531       C  0.83189245  0.04150120  0.91272340    -0.39500
C1532       C  0.84331863  0.03195013  0.94506245     0.21300
N1533       N  0.87832210  0.02207367  0.98329134    -0.32800
C1534       C  0.85758157  0.00142253  0.98729372    -0.10400
C1535       C  0.83336209  0.01108153  0.96794734    -0.29200
N1536       N  0.84618038  0.06626090  0.85773991    -0.45800
C1537       C  0.87143459  0.07777409  0.84640926    -0.05000
C1538       C  0.89244582  0.07562807  0.87262036    -0.22400
H1539       H  0.91227624  0.05708602  0.94071180     0.19400
H1540       H  0.81057000  0.03539677  0.90401823     0.18200
H1541       H  0.81153478  0.00336089  0.96787894     0.14500
H1542       H  0.91444116  0.08323894  0.87148420     0.14300
H1543       H  0.89841508  0.02265128  0.99569247     0.32500
H1544       H  0.82687071  0.06498847  0.84373480     0.35300
C1545       C  0.87881927  0.50043104  0.86120341     0.20900
C1546       C  0.86369460  0.47838205  0.87862676    -0.39000
C1547       C  0.88009813  0.46082625  0.90137475     0.19800
C1548       C  0.90931096  0.46491798  0.90643615     0.22500
C1549       C  0.92430639  0.48711644  0.88934977    -0.39500
C1550       C  0.90801393  0.50453680  0.86642761     0.21300
N1551       N  0.86832918  0.51983951  0.83801428    -0.32800
C1552       C  0.89103063  0.53643099  0.82825202    -0.10400
C1553       C  0.91612747  0.52744177  0.84551242    -0.29200
N1554       N  0.92008710  0.44522991  0.92902057    -0.45800
C1555       C  0.89757789  0.42841287  0.93864417    -0.05000
C1556       C  0.87224667  0.43762788  0.92200318    -0.22400
H1557       H  0.84085680  0.47504314  0.87465044     0.19400
H1558       H  0.94702384  0.49054802  0.89371821     0.18200
H1559       H  0.93751078  0.53643657  0.84302306     0.14500
H1560       H  0.85093313  0.42849744  0.92459089     0.14300
H1561       H  0.84706833  0.52158403  0.82921893     0.32500
H1562       H  0.94140517  0.44348120  0.93758852     0.35300
C1563       C  0.91378048  0.46299277  0.61514559     0.20900
C1564       C  0.92988574  0.48319363  0.63460516    -0.39000
C1565       C  0.91394416  0.50544669  0.65085085     0.19800
C1566       C  0.88428909  0.50729234  0.64778792     0.22500
C1567       C  0.86828686  0.48717195  0.62846417    -0.39500
C1568       C  0.88412518  0.46499753  0.61244246     0.21300
N1569       N  0.92363306  0.44008198  0.59685392    -0.32800
C1570       C  0.90002289  0.42737306  0.58250964    -0.10400
C1571       C  0.87503849  0.44236847  0.59185100    -0.29200
N1572       N  0.87391438  0.52948584  0.66663234    -0.45800
C1573       C  0.89691602  0.54209640  0.68224547    -0.05000
C1574       C  0.92241116  0.52776251  0.67276766    -0.22400
H1575       H  0.95305238  0.48153044  0.63720012     0.19400
H1576       H  0.84506477  0.48854670  0.62631189     0.18200
H1577       H  0.85316131  0.43779050  0.58380727     0.14500
H1578       H  0.94402518  0.53225749  0.68187240     0.14300
H1579       H  0.94511655  0.43379848  0.59378720     0.32500
H1580       H  0.85224450  0.53511726  0.66966440     0.35300
C1581       C  0.86213349  0.70554929  0.94305210     0.20900
C1582       C  0.84603267  0.69503128  0.91422364    -0.39000
C1583       C  0.86141812  0.67809346  0.88961782     0.19800
C1584       C  0.89035270  0.67184383  0.89406194     0.22500
C1585       C  0.90591251  0.68134857  0.92340229    -0.39500
C1586       C  0.89072939  0.69858955  0.94731876     0.21300
N1587       N  0.85433649  0.72600235  0.96645102    -0.32800
C1588       C  0.87904032  0.73511740  0.98272933    -0.10400
C1589       C  0.90093531  0.71506913  0.97445059    -0.29200
N1590       N  0.90080982  0.65726661  0.86636054    -0.45800
C1591       C  0.87855623  0.65364003  0.84373334    -0.05000
C1592       C  0.85340957  0.66624424  0.85748895    -0.22400
H1593       H  0.82378835  0.70120795  0.90998997     0.19400
H1594       H  0.92878146  0.67725581  0.92616093     0.18200
H1595       H  0.92280687  0.71443387  0.98430180     0.14500
H1596       H  0.83228545  0.66694472  0.84546707     0.14300
H1597       H  0.83316790  0.73267547  0.97046127     0.32500
H1598       H  0.92197123  0.65000595  0.86314105     0.35300
C1599       C  0.89629920  0.73002444  0.59394570     0.20900
C1600       C  0.91115491  0.72216571  0.62513766    -0.39000
C1601       C  0.89818658  0.70047891  0.64613964     0.19800
C1602       C  0.87229113  0.68800097  0.63683520     0.22500
C1603       C  0.85784596  0.69552451  0.60571566    -0.39500
C1604       C  0.87085915  0.71680501  0.58487813     0.21300
N1605       N  0.90443078  0.74884367  0.56843108    -0.32800
C1606       C  0.88388107  0.74773971  0.54261026    -0.10400
C1607       C  0.86303186  0.72732036  0.55252614    -0.29200
N1608       N  0.86465604  0.66747042  0.66005496    -0.45800
C1609       C  0.88591669  0.66604183  0.68447562    -0.05000
C1610       C  0.90731011  0.68645692  0.67664584    -0.22400
H1611       H  0.93159869  0.73170558  0.63212641     0.19400
H1612       H  0.83806575  0.68508371  0.59785862     0.18200
H1613       H  0.84507535  0.71976356  0.53703789     0.14500
H1614       H  0.92719124  0.69003450  0.69080698     0.14300
H1615       H  0.92331834  0.76090019  0.56859270     0.32500
H1616       H  0.84653666  0.65426804  0.65850906     0.35300
loop_ 
_geom_bond_atom_site_label_1 
_geom_bond_atom_site_label_2 
_geom_bond_distance 
_geom_bond_site_symmetry_2 
_ccdc_geom_bond_type 
C1           C45   1.755       .  S
C1          C218   1.591       .  S
C1          C780   1.602       .  S
C1         C1606   1.578       .  S
O2          Ni10   1.929       .  S
O2           C12   1.283       .  A
O3          Ni10   1.948       .  S
O3           C13   1.285       .  A
O4          Ni10   1.936       .  S
O4           C14   1.285       .  A
O5          Ni10   1.942       .  S
O5           C15   1.285       .  A
O6          Ni11   1.925       .  S
O6           C15   1.282       .  A
O7          Ni11   1.932       .  S
O7           C14   1.282       .  A
O8          Ni11   1.944       .  S
O8           C13   1.287       .  A
O9          Ni11   1.939       .  S
O9           C12   1.285       .  A
Ni10        Ni11   2.383       .  S
C12         C744   1.490       .  S
C13         C801   1.505       .  S
C14         C783   1.490       .  S
C15         C765   1.491       .  S
C16         C897   1.766       .  S
C16         C726   1.612   1_565  S
C16        C1009   1.652       .  S
C16        C1516   1.566       .  S
O17         Ni25   1.938       .  S
O17          C27   1.286       .  A
O18         Ni25   1.934       .  S
O18          C28   1.285       .  A
O19         Ni25   1.920       .  S
O19          C29   1.281       .  A
O20         Ni25   1.928       .  S
O20          C30   1.282       .  A
O21         Ni26   1.944       .  S
O21          C30   1.287       .  A
O22         Ni26   1.940       .  S
O22          C29   1.285       .  A
O23         Ni26   1.925       .  S
O23          C28   1.282       .  A
O24         Ni26   1.942       .  S
O24          C27   1.284       .  A
Ni25        Ni26   2.384       .  S
C27         C711   1.499       .  S
C28         C690   1.485       .  S
C29         C672   1.487       .  S
C30         C729   1.494       .  S
O31         Ni39   1.917       .  S
O31          C41   1.280       .  A
O32        Ni847   1.920       .  S
O32          C42   1.281       .  A
O33        Ni847   1.926       .  S
O33          C43   1.283       .  A
O34         Ni39   1.926       .  S
O34          C44   1.283       .  A
O35        Ni848   1.937       .  S
O35          C44   1.284       .  A
O36         Ni40   1.940       .  S
O36          C43   1.285       .  A
O37         Ni40   1.944       .  S
O37          C42   1.286       .  A
O38        Ni848   1.943       .  S
O38          C41   1.287       .  A
Ni39        O840   1.920       .  S
Ni39        O841   1.928       .  S
Ni39       Ni848   2.385       .  S
Ni40        O843   1.939   1_554  S
Ni40        O846   1.944   1_554  S
Ni40       Ni847   2.385       .  S
C41         C747   1.487       .  S
C42         C675   1.488       .  S
C43         C762   1.490       .  S
C44         C693   1.487       .  S
C45         C654   1.566       .  S
C45        C1040   1.635       .  S
C45        C1444   1.545       .  S
O46         Ni54   1.919       .  S
O46          C56   1.281       .  A
O47         Ni54   1.918       .  S
O47          C57   1.281       .  A
O48         Ni54   1.933       .  S
O48          C58   1.283       .  A
O49         Ni54   1.924       .  S
O49          C59   1.282       .  A
O50         Ni55   1.940       .  S
O50          C59   1.285       .  A
O51         Ni55   1.936       .  S
O51          C58   1.284       .  A
O52         Ni55   1.925       .  S
O52          C57   1.281       .  A
O53         Ni55   1.920       .  S
O53          C56   1.282       .  A
Ni54        Ni55   2.387       .  S
C56         C621   1.472       .  S
C57         C639   1.472       .  S
C58         C657   1.485       .  S
C59         C600   1.487       .  S
C60         C133   1.768       .  S
C60         C582   1.582   1_556  S
C60         C995   1.631       .  S
C60        C1372   1.572       .  S
O61         Ni69   1.922       .  S
O61          C71   1.280       .  A
O62         Ni69   1.922       .  S
O62          C72   1.282       .  A
O63         Ni69   1.940       .  S
O63          C73   1.285       .  A
O64         Ni69   1.945       .  S
O64          C74   1.286       .  A
O65         Ni70   1.942       .  S
O65          C74   1.284       .  A
O66         Ni70   1.928       .  S
O66          C73   1.282       .  A
O67         Ni70   1.933       .  S
O67          C72   1.283       .  A
O68         Ni70   1.945       .  S
O68          C71   1.286       .  A
Ni69        Ni70   2.385       .  S
C71         C567   1.484       .  S
C72         C546   1.482       .  S
C73         C528   1.489       .  S
C74         C585   1.496       .  S
O75         Ni83   1.927       .  S
O75          C85   1.282       .  A
O76        Ni891   1.926   1_554  S
O76          C86   1.282       .  A
O77        Ni891   1.915   1_554  S
O77          C87   1.280       .  A
O78         Ni83   1.918       .  S
O78          C88   1.281       .  A
O79        Ni892   1.926       .  S
O79          C88   1.282       .  A
O80         Ni84   1.934   1_554  S
O80          C87   1.284       .  A
O81         Ni84   1.935   1_554  S
O81          C86   1.284       .  A
O82        Ni892   1.937       .  S
O82          C85   1.285       .  A
Ni83        O884   1.927       .  S
Ni83        O885   1.913       .  S
Ni83       Ni892   2.387       .  S
Ni84        O887   1.923       .  S
Ni84        O890   1.942       .  S
Ni84       Ni891   2.387       .  S
C85         C531   1.488       .  S
C86         C603   1.486       .  S
C87         C549   1.479       .  S
C88         C618   1.475       .  S
C89         C824   1.765       .  S
C89         C510   1.558       .  S
C89        C1037   1.597   1_554  S
C89        C1303   1.565   1_554  S
O90         Ni98   1.925       .  S
O90         C100   1.283       .  A
O91         Ni98   1.932       .  S
O91         C101   1.283       .  A
O92         Ni98   1.923       .  S
O92         C102   1.281       .  A
O93         Ni98   1.923       .  S
O93         C103   1.282       .  A
O94         Ni99   1.929       .  S
O94         C103   1.283       .  A
O95         Ni99   1.939       .  S
O95         C102   1.285       .  A
O96         Ni99   1.929       .  S
O96         C101   1.282       .  A
O97         Ni99   1.927       .  S
O97         C100   1.282       .  A
Ni98        Ni99   2.386       .  S
C100        C474   1.481       .  S
C101        C492   1.480       .  S
C102        C513   1.484       .  S
C103        C456   1.480       .  S
C104        C956   1.762       .  S
C104        C441   1.591       .  S
C104        C998   1.583       .  S
C104       C1228   1.564       .  S
O105       Ni113   1.925       .  S
O105        C115   1.283       .  A
O106       Ni113   1.926       .  S
O106        C116   1.284       .  A
O107       Ni113   1.922       .  S
O107        C117   1.280       .  A
O108       Ni113   1.918       .  S
O108        C118   1.281       .  A
O109       Ni114   1.943       .  S
O109        C118   1.286       .  A
O110       Ni114   1.937       .  S
O110        C117   1.286       .  A
O111       Ni114   1.922       .  S
O111        C116   1.280       .  A
O112       Ni114   1.908       .  S
O112        C115   1.279       .  A
Ni113      Ni114   2.387       .  S
C115        C405   1.469       .  S
C116        C423   1.478       .  S
C117        C438   1.483       .  S
C118        C387   1.486       .  S
O119       Ni127   1.937       .  S
O119        C129   1.284       .  A
O120       Ni935   1.926       .  S
O120        C130   1.283       .  A
O121       Ni935   1.931       .  S
O121        C131   1.284       .  A
O122       Ni127   1.933       .  S
O122        C132   1.284       .  A
O123       Ni936   1.923       .  S
O123        C132   1.282       .  A
O124       Ni128   1.920       .  S
O124        C131   1.281       .  A
O125       Ni128   1.915       .  S
O125        C130   1.280       .  A
O126       Ni936   1.911       .  S
O126        C129   1.280       .  A
Ni127       O928   1.927   1_554  S
Ni127       O929   1.932   1_554  S
Ni127      Ni936   2.387       .  S
Ni128       O931   1.926       .  S
Ni128       O934   1.912       .  S
Ni128      Ni935   2.388       .  S
C129        C477   1.479       .  S
C130        C402   1.473       .  S
C131        C459   1.479       .  S
C132        C384   1.484       .  S
C133        C215   1.584       .  S
C133        C348   1.560   1_556  S
C133       C1177   1.604       .  S
O134       Ni142   1.931       .  S
O134        C144   1.284       .  A
O135       Ni142   1.930       .  S
O135        C145   1.283       .  A
O136       Ni142   1.919       .  S
O136        C146   1.281       .  A
O137       Ni142   1.933       .  S
O137        C147   1.284       .  A
O138       Ni143   1.934       .  S
O138        C147   1.284       .  A
O139       Ni143   1.928       .  S
O139        C146   1.282       .  A
O140       Ni143   1.928       .  S
O140        C145   1.283       .  A
O141       Ni143   1.934       .  S
O141        C144   1.283       .  A
Ni142      Ni143   2.386       .  S
C144        C366   1.488       .  S
C145        C315   1.485       .  S
C146        C333   1.477       .  S
C147        C351   1.491       .  S
C148        C912   1.760   1_556  S
C148        C297   1.561   1_566  S
C148       C1012   1.659   1_455  S
C148       C1087   1.561   1_565  S
O149       Ni157   1.920       .  S
O149        C159   1.281       .  A
O150       Ni157   1.930       .  S
O150        C160   1.282       .  A
O151       Ni157   1.933       .  S
O151        C161   1.283       .  A
O152       Ni157   1.941       .  S
O152        C162   1.285       .  A
O153       Ni158   1.930       .  S
O153        C162   1.284   1_655  A
O154       Ni158   1.942       .  S
O154        C161   1.285   1_655  A
O155       Ni158   1.921       .  S
O155        C160   1.282   1_655  A
O156       Ni158   1.923       .  S
O156        C159   1.282   1_655  A
Ni157      Ni158   2.386   1_455  S
C159        C258   1.475       .  S
C160        C276   1.476       .  S
C161        C294   1.490       .  S
C162        C243   1.492       .  S
O163       Ni171   1.933       .  S
O163        C173   1.283       .  A
O164       Ni979   1.933   1_554  S
O164        C174   1.284       .  A
O165       Ni979   1.920   1_554  S
O165        C175   1.281       .  A
O166       Ni171   1.926       .  S
O166        C176   1.282       .  A
O167       Ni980   1.921       .  S
O167        C176   1.282       .  A
O168       Ni172   1.923   1_554  S
O168        C175   1.282       .  A
O169       Ni172   1.933   1_554  S
O169        C174   1.284       .  A
O170       Ni980   1.932       .  S
O170        C173   1.284       .  A
Ni171       O972   1.931       .  S
Ni171       O973   1.923       .  S
Ni171      Ni980   2.386       .  S
Ni172       O975   1.921       .  S
Ni172       O978   1.935       .  S
Ni172      Ni979   2.387       .  S
C173        C240   1.489       .  S
C174        C312   1.489       .  S
C175        C261   1.475       .  S
C176        C330   1.478       .  S
O177       Ni185   2.017       .  S
O177        C995   1.292       .  A
O178       Ni185   1.896       .  S
O178        C996   1.247       .  A
O179       Ni185   1.884   1_655  S
O179        C189   1.248   1_655  A
O180       Ni185   1.872   1_554  S
O180        C190   1.275   1_554  A
O181       Ni186   1.992       .  S
O181        C998   1.314       .  A
O182       Ni186   1.945       .  S
O182        C997   1.276       .  A
O183       Ni186   1.981       .  S
O183        C188   1.279       .  A
O184       Ni186   1.965       .  S
O184        C187   1.308       .  A
Ni185      Ni994   2.289       .  S
Ni186      Ni993   2.292       .  S
C187        C868   1.635       .  S
C187        O985   1.293       .  A
C188        O986   1.248       .  A
C188       C1010   1.448   1_455  S
C189        O990   1.276       .  A
C189       C1025   1.434   1_455  S
C190        C912   1.578   1_556  S
C190        O989   1.312       .  A
O191       Ni199   1.931       .  S
O191       C1009   1.290       .  A
O192       Ni199   1.970       .  S
O192       C1010   1.282       .  A
O193       Ni199   1.978       .  S
O193        C203   1.286       .  A
O194       Ni199   1.976       .  S
O194        C204   1.305       .  A
O195       Ni200   2.026       .  S
O195       C1012   1.296       .  A
O196       Ni200   1.887       .  S
O196       C1011   1.253       .  A
O197       Ni200   1.890       .  S
O197        C202   1.256       .  A
O198       Ni200   2.050       .  S
O198        C201   1.304       .  A
Ni199     Ni1008   2.339       .  S
Ni200     Ni1007   2.338       .  S
C201        C824   1.657   1_556  S
C201        O999   1.290       .  A
C202       O1000   1.282       .  A
C202        C996   1.449   1_655  S
C203       O1004   1.253       .  A
C203       C1039   1.457       .  S
C204        C956   1.657   1_655  S
C204       O1003   1.295       .  A
O205       Ni213   1.950       .  S
O205       C1023   1.302   1_655  A
O206       Ni213   1.915       .  S
O206       C1024   1.269       .  A
O207       Ni213   1.914       .  S
O207        C217   1.269       .  A
O208       Ni213   1.959       .  S
O208        C218   1.304       .  A
O209       Ni214   1.911   1_554  S
O209       C1026   1.277   1_554  A
O210       Ni214   1.815       .  S
O210       C1025   1.275       .  A
O211       Ni214   1.811       .  S
O211        C216   1.272       .  A
O212       Ni214   1.903   1_554  S
O212        C215   1.277   1_654  A
Ni213     Ni1022   2.384       .  S
Ni214     Ni1021   2.383       .  S
C215       O1013   1.303   1_455  A
C216       O1014   1.270       .  A
C216       C1038   1.431       .  S
C217       O1018   1.276       .  A
C217        C997   1.433   1_655  S
C218       O1017   1.277       .  A
O219       Ni227   1.899   1_554  S
O219       C1037   1.280   1_554  A
O220       Ni227   1.887       .  S
O220       C1038   1.254       .  A
O221       Ni227   1.897       .  S
O221        C231   1.249       .  A
O222       Ni227   2.018   1_554  S
O222        C232   1.292   1_554  A
O223       Ni228   1.946       .  S
O223       C1040   1.305       .  A
O224       Ni228   1.987       .  S
O224       C1039   1.282       .  A
O225       Ni228   1.940       .  S
O225        C230   1.274       .  A
O226       Ni228   1.975       .  S
O226        C229   1.313       .  A
Ni227     Ni1036   2.300       .  S
Ni228     Ni1035   2.301       .  S
C229        C897   1.598       .  S
C229       O1027   1.280       .  A
C230       O1028   1.253       .  A
C230       C1024   1.430       .  S
C231       O1032   1.282       .  A
C231       C1011   1.456       .  S
C232        C853   1.632   1_556  S
C232       O1031   1.305       .  A
C233        C238   1.383       .  A
C233        C234   1.404       .  A
C233        N239   1.347       .  A
C234        C235   1.406       .  A
C234        H245   1.080   1_455  S
C235        C244   1.382       .  A
C235        C236   1.383       .  A
C236        C237   1.413       .  A
C236        N242   1.352       .  A
C237        C238   1.413       .  A
C237        H246   1.082       .  S
C238        C241   1.389       .  A
N239        C240   1.357       .  A
N239        H249   1.045   1_455  S
C240        C241   1.402       .  A
C241        H247   1.082       .  S
N242        C243   1.361       .  A
N242        H250   1.045       .  S
C243        C244   1.399       .  A
C244        H248   1.082   1_455  S
C251        C256   1.384       .  A
C251        C252   1.406   1_455  A
C251        N257   1.345       .  A
C252        C253   1.405   1_655  A
C252        H263   1.082       .  S
C253        C262   1.381       .  A
C253        C254   1.384       .  A
C254        C255   1.404       .  A
C254        N260   1.344       .  A
C255        C256   1.403       .  A
C255        H264   1.082       .  S
C256        C259   1.379       .  A
N257        C258   1.356       .  A
N257        H267   1.045   1_455  S
C258        C259   1.396       .  A
C259        H265   1.082       .  S
N260        C261   1.356       .  A
N260        H268   1.045       .  S
C261        C262   1.397       .  A
C262        H266   1.082   1_455  S
C269        C274   1.384       .  A
C269        C270   1.414       .  A
C269        N275   1.350       .  A
C270        C271   1.412       .  A
C270        H281   1.082       .  S
C271        C280   1.390   1_545  A
C271        C272   1.377       .  A
C272        C273   1.402   1_455  A
C272        N278   1.338       .  A
C273        C274   1.399   1_655  A
C273        H282   1.083       .  S
C274        C277   1.376       .  A
N275        C276   1.360       .  A
N275        H285   1.044       .  S
C276        C277   1.392       .  A
C277        H283   1.083   1_455  S
N278        C279   1.367       .  A
N278        H286   1.044   1_455  S
C279        C956   1.566   1_545  S
C279        C280   1.412   1_545  A
C280        H284   1.080       .  S
C287        C292   1.383       .  A
C287        C288   1.404       .  A
C287        N293   1.347       .  A
C288        C289   1.405       .  A
C288        H299   1.082       .  S
C289        C298   1.374       .  A
C289        C290   1.380       .  A
C290        C291   1.416   1_455  A
C290        N296   1.358   1_445  A
C291        C292   1.418   1_655  A
C291        H300   1.082       .  S
C292        C295   1.393   1_455  A
N293        C294   1.356       .  A
N293        H303   1.045       .  S
C294        C295   1.403   1_455  A
C295        H301   1.082       .  S
N296        C297   1.366   1_665  A
N296        H304   1.044       .  S
C297        C298   1.408       .  A
C298        H302   1.081       .  S
C305        C310   1.383       .  A
C305        C306   1.408       .  A
C305        N311   1.348       .  A
C306        C307   1.407       .  A
C306        H317   1.082       .  S
C307        C316   1.383       .  A
C307        C308   1.383       .  A
C308        C309   1.408       .  A
C308        N314   1.349       .  A
C309        C310   1.409       .  A
C309        H318   1.081   1_455  S
C310        C313   1.386       .  A
N311        C312   1.359       .  A
N311        H321   1.045       .  S
C312        C313   1.400       .  A
C313        H319   1.082   1_455  S
N314        C315   1.359       .  A
N314        H322   1.045   1_455  S
C315        C316   1.398       .  A
C316        H320   1.082       .  S
C323        C328   1.384       .  A
C323        C324   1.409       .  A
C323        N329   1.347       .  A
C324        C325   1.408       .  A
C324        H335   1.082       .  S
C325        C334   1.385       .  A
C325        C326   1.383       .  A
C326        C327   1.401       .  A
C326        N332   1.342       .  A
C327        C328   1.402       .  A
C327        H336   1.079   1_455  S
C328        C331   1.378       .  A
N329        C330   1.358       .  A
N329        H339   1.045       .  S
C330        C331   1.396       .  A
C331        H337   1.082   1_455  S
N332        C333   1.355       .  A
N332        H340   1.045       .  S
C333        C334   1.399       .  A
C334        H338   1.082       .  S
C341        C346   1.378       .  A
C341        C342   1.409       .  A
C341        N347   1.344       .  A
C342        C343   1.406       .  A
C342        H353   1.082   1_455  S
C343        C352   1.386       .  A
C343        C344   1.382       .  A
C344        C345   1.414       .  A
C344        N350   1.350       .  A
C345        C346   1.411       .  A
C345        H354   1.082       .  S
C346        C349   1.391       .  A
N347        C348   1.369       .  A
N347        H357   1.042   1_455  S
C348        C349   1.411       .  A
C349        H355   1.082       .  S
N350        C351   1.360       .  A
N350        H358   1.044       .  S
C351        C352   1.400       .  A
C352        H356   1.083   1_455  S
C359        C364   1.383       .  A
C359        C360   1.411       .  A
C359        N365   1.351       .  A
C360        C361   1.411       .  A
C360        H371   1.082       .  S
C361        C370   1.382       .  A
C361        C362   1.371       .  A
C362        C363   1.407       .  A
C362        N368   1.342       .  A
C363        C364   1.406       .  A
C363        H372   1.083       .  S
C364        C367   1.382       .  A
N365        C366   1.360       .  A
N365        H375   1.045       .  S
C366        C367   1.398       .  A
C367        H373   1.082       .  S
N368        C369   1.371       .  A
N368        H376   1.045       .  S
C369        C941   1.602       .  S
C369        C370   1.416       .  A
C370        H374   1.070       .  S
C377        C382   1.383       .  A
C377        C378   1.404       .  A
C377        N383   1.345       .  A
C378        C379   1.404       .  A
C378        H389   1.082       .  S
C379        C388   1.377       .  A
C379        C380   1.383       .  A
C380        C381   1.411       .  A
C380        N386   1.352       .  A
C381        C382   1.412       .  A
C381        H390   1.082       .  S
C382        C385   1.387       .  A
N383        C384   1.356       .  A
N383        H393   1.045       .  S
C384        C385   1.400       .  A
C385        H391   1.082       .  S
N386        C387   1.360       .  A
N386        H394   1.045       .  S
C387        C388   1.397       .  A
C388        H392   1.082       .  S
C395        C400   1.384       .  A
C395        C396   1.403       .  A
C395        N401   1.344       .  A
C396        C397   1.401       .  A
C396        H407   1.081       .  S
C397        C406   1.375       .  A
C397        C398   1.384       .  A
C398        C399   1.404       .  A
C398        N404   1.345       .  A
C399        C400   1.404       .  A
C399        H408   1.082   1_565  S
C400        C403   1.377       .  A
N401        C402   1.355       .  A
N401        H411   1.044       .  S
C402        C403   1.396       .  A
C403        H409   1.082       .  S
N404        C405   1.355       .  A
N404        H412   1.045       .  S
C405        C406   1.395       .  A
C406        H410   1.083       .  S
C413        C418   1.378       .  A
C413        C414   1.401       .  A
C413        N419   1.338       .  A
C414        C415   1.399       .  A
C414        H425   1.083   1_565  S
C415        C424   1.377       .  A
C415        C416   1.384       .  A
C416        C417   1.410       .  A
C416        N422   1.348       .  A
C417        C418   1.409       .  A
C417        H426   1.083       .  S
C418        C421   1.384       .  A
N419        C420   1.362       .  A
N419        H429   1.043   1_565  S
C420        C912   1.557       .  S
C420        C421   1.413       .  A
C421        H427   1.079       .  S
N422        C423   1.359       .  A
N422        H430   1.045       .  S
C423        C424   1.393       .  A
C424        H428   1.082   1_565  S
C431        C436   1.383       .  A
C431        C432   1.401       .  A
C431        N437   1.345       .  A
C432        C433   1.403       .  A
C432        H443   1.083       .  S
C433        C442   1.371       .  A
C433        C434   1.378       .  A
C434        C435   1.414   1_565  A
C434        N440   1.352       .  A
C435        C436   1.413   1_545  A
C435        H444   1.082       .  S
C436        C439   1.389       .  A
N437        C438   1.355       .  A
N437        H447   1.045       .  S
C438        C439   1.402       .  A
C439        H445   1.082   1_565  S
N440        C441   1.367       .  A
N440        H448   1.036   1_565  S
C441        C442   1.410       .  A
C442        H446   1.083       .  S
C449        C454   1.384       .  A
C449        C450   1.408       .  A
C449        N455   1.348       .  A
C450        C451   1.406       .  A
C450        H461   1.081       .  S
C451        C460   1.384       .  A
C451        C452   1.383       .  A
C452        C453   1.405       .  A
C452        N458   1.345       .  A
C453        C454   1.404       .  A
C453        H462   1.082       .  S
C454        C457   1.380       .  A
N455        C456   1.358       .  A
N455        H465   1.045       .  S
C456        C457   1.396       .  A
C457        H463   1.082       .  S
N458        C459   1.357       .  A
N458        H466   1.045       .  S
C459        C460   1.397       .  A
C460        H464   1.082       .  S
C467        C472   1.383       .  A
C467        C468   1.411       .  A
C467        N473   1.349       .  A
C468        C469   1.409       .  A
C468        H479   1.080       .  S
C469        C478   1.389       .  A
C469        C470   1.383       .  A
C470        C471   1.402       .  A
C470        N476   1.340       .  A
C471        C472   1.400       .  A
C471        H480   1.082       .  S
C472        C475   1.378       .  A
N473        C474   1.360       .  A
N473        H483   1.045       .  S
C474        C475   1.395       .  A
C475        H481   1.082       .  S
N476        C477   1.355       .  A
N476        H484   1.045       .  S
C477        C478   1.400       .  A
C478        H482   1.082       .  S
C485        C490   1.384       .  A
C485        C486   1.411       .  A
C485        N491   1.350       .  A
C486        C487   1.410       .  A
C486        H497   1.082       .  S
C487        C496   1.385       .  A
C487        C488   1.377       .  A
C488        C489   1.406       .  A
C488        N494   1.343       .  A
C489        C490   1.404       .  A
C489        H498   1.082       .  S
C490        C493   1.382       .  A
N491        C492   1.358       .  A
N491        H501   1.044       .  S
C492        C493   1.395       .  A
C493        H499   1.082       .  S
N494        C495   1.369       .  A
N494        H502   1.043       .  S
C495        C897   1.567       .  S
C495        C496   1.412       .  A
C496        H500   1.080       .  S
C503        C508   1.379       .  A
C503        C504   1.412       .  A
C503        N509   1.349       .  A
C504        C505   1.411       .  A
C504        H515   1.082       .  S
C505        C514   1.389       .  A
C505        C506   1.384       .  A
C506        C507   1.406       .  A
C506        N512   1.345       .  A
C507        C508   1.404       .  A
C507        H516   1.082       .  S
C508        C511   1.380       .  A
N509        C510   1.366       .  A
N509        H519   1.043       .  S
C510        C511   1.407       .  A
C511        H517   1.082       .  S
N512        C513   1.357       .  A
N512        H520   1.045       .  S
C513        C514   1.400       .  A
C514        H518   1.082       .  S
C521        C526   1.383       .  A
C521        C522   1.409       .  A
C521        N527   1.348       .  A
C522        C523   1.406       .  A
C522        H533   1.081       .  S
C523        C532   1.385       .  A
C523        C524   1.383       .  A
C524        C525   1.411       .  A
C524        N530   1.349       .  A
C525        C526   1.410       .  A
C525        H534   1.082       .  S
C526        C529   1.388       .  A
N527        C528   1.359       .  A
N527        H537   1.045       .  S
C528        C529   1.400       .  A
C529        H535   1.082       .  S
N530        C531   1.360       .  A
N530        H538   1.045       .  S
C531        C532   1.398       .  A
C532        H536   1.082       .  S
C539        C544   1.383       .  A
C539        C540   1.410       .  A
C539        N545   1.350       .  A
C540        C541   1.409       .  A
C540        H551   1.081       .  S
C541        C550   1.387       .  A
C541        C542   1.383       .  A
C542        C543   1.403       .  A
C542        N548   1.342       .  A
C543        C544   1.402       .  A
C543        H552   1.082       .  S
C544        C547   1.377       .  A
N545        C546   1.360       .  A
N545        H555   1.044       .  S
C546        C547   1.395       .  A
C547        H553   1.082       .  S
N548        C549   1.355       .  A
N548        H556   1.045       .  S
C549        C550   1.399       .  A
C550        H554   1.082       .  S
C557        C562   1.379       .  A
C557        C558   1.408       .  A
C557        N563   1.350       .  A
C558        C559   1.408       .  A
C558        H569   1.082       .  S
C559        C568   1.383       .  A
C559        C560   1.384       .  A
C560        C561   1.412       .  A
C560        N566   1.353       .  A
C561        C562   1.412       .  A
C561        H570   1.082       .  S
C562        C565   1.384       .  A
N563        C564   1.368       .  A
N563        H573   1.042       .  S
C564        C868   1.569       .  S
C564        C565   1.412       .  A
C565        H571   1.078       .  S
N566        C567   1.359       .  A
N566        H574   1.044       .  S
C567        C568   1.396       .  A
C568        H572   1.082       .  S
C575        C580   1.375       .  A
C575        C576   1.413       .  A
C575        N581   1.353       .  A
C576        C577   1.414       .  A
C576        H587   1.082       .  S
C577        C586   1.390       .  A
C577        C578   1.383       .  A
C578        C579   1.412       .  A
C578        N584   1.353       .  A
C579        C580   1.413       .  A
C579        H588   1.082       .  S
C580        C583   1.382       .  A
N581        C582   1.368       .  A
N581        H591   1.042       .  S
C582        C583   1.416       .  A
C583        H589   1.081       .  S
N584        C585   1.361       .  A
N584        H592   1.045       .  S
C585        C586   1.401       .  A
C586        H590   1.082       .  S
C593        C598   1.383       .  A
C593        C594   1.409       .  A
C593        N599   1.350       .  A
C594        C595   1.410       .  A
C594        H605   1.082       .  S
C595        C604   1.387       .  A
C595        C596   1.383       .  A
C596        C597   1.407       .  A
C596        N602   1.347       .  A
C597        C598   1.407       .  A
C597        H606   1.082       .  S
C598        C601   1.382       .  A
N599        C600   1.359       .  A
N599        H609   1.045       .  S
C600        C601   1.399       .  A
C601        H607   1.082       .  S
N602        C603   1.358       .  A
N602        H610   1.045       .  S
C603        C604   1.400       .  A
C604        H608   1.082       .  S
C611        C616   1.384       .  A
C611        C612   1.404       .  A
C611        N617   1.345       .  A
C612        C613   1.401       .  A
C612        H623   1.081       .  S
C613        C622   1.377       .  A
C613        C614   1.384       .  A
C614        C615   1.405       .  A
C614        N620   1.345       .  A
C615        C616   1.405       .  A
C615        H624   1.082       .  S
C616        C619   1.380       .  A
N617        C618   1.356       .  A
N617        H627   1.044       .  S
C618        C619   1.397       .  A
C619        H625   1.082       .  S
N620        C621   1.357       .  A
N620        H628   1.045       .  S
C621        C622   1.395       .  A
C622        H626   1.083       .  S
C629        C634   1.380       .  A
C629        C630   1.409       .  A
C629        N635   1.346       .  A
C630        C631   1.408       .  A
C630        H641   1.082       .  S
C631        C640   1.386       .  A
C631        C632   1.385       .  A
C632        C633   1.401       .  A
C632        N638   1.341       .  A
C633        C634   1.399       .  A
C633        H642   1.082       .  S
C634        C637   1.374       .  A
N635        C636   1.364       .  A
N635        H645   1.044       .  S
C636        C853   1.545       .  S
C636        C637   1.403       .  A
C637        H643   1.082       .  S
N638        C639   1.353       .  A
N638        H646   1.045       .  S
C639        C640   1.399       .  A
C640        H644   1.082       .  S
C647        C652   1.378       .  A
C647        C648   1.406       .  A
C647        N653   1.343       .  A
C648        C649   1.403       .  A
C648        H659   1.082       .  S
C649        C658   1.382       .  A
C649        C650   1.383       .  A
C650        C651   1.416       .  A
C650        N656   1.353       .  A
C651        C652   1.414       .  A
C651        H660   1.082       .  S
C652        C655   1.391       .  A
N653        C654   1.369       .  A
N653        H663   1.043       .  S
C654        C655   1.414       .  A
C655        H661   1.081       .  S
N656        C657   1.361       .  A
N656        H664   1.044       .  S
C657        C658   1.394       .  A
C658        H662   1.082       .  S
C665        C670   1.383       .  A
C665        C666   1.412       .  A
C665        N671   1.351       .  A
C666        C667   1.412       .  A
C666        H677   1.081       .  S
C667        C676   1.391       .  A
C667        C668   1.383       .  A
C668        C669   1.405       .  A
C668        N674   1.344       .  A
C669        C670   1.404       .  A
C669        H678   1.082       .  S
C670        C673   1.380       .  A
N671        C672   1.360       .  A
N671        H681   1.045       .  S
C672        C673   1.398       .  A
C673        H679   1.083       .  S
N674        C675   1.357       .  A
N674        H682   1.045       .  S
C675        C676   1.402       .  A
C676        H680   1.082       .  S
C683        C688   1.383       .  A
C683        C684   1.409       .  A
C683        N689   1.348       .  A
C684        C685   1.410       .  A
C684        H695   1.080       .  S
C685        C694   1.388       .  A
C685        C686   1.383       .  A
C686        C687   1.407       .  A
C686        N692   1.345       .  A
C687        C688   1.405       .  A
C687        H696   1.082       .  S
C688        C691   1.383       .  A
N689        C690   1.359       .  A
N689        H699   1.045       .  S
C690        C691   1.397       .  A
C691        H697   1.082       .  S
N692        C693   1.357       .  A
N692        H700   1.045       .  S
C693        C694   1.401       .  A
C694        H698   1.082       .  S
C701        C706   1.377       .  A
C701        C702   1.422       .  A
C701        N707   1.367   1_545  A
C702        C703   1.426       .  A
C702        H713   1.081       .  S
C703        C712   1.397       .  A
C703        C704   1.383       .  A
C704        C705   1.399       .  A
C704        N710   1.347       .  A
C705        C706   1.402       .  A
C705        H714   1.083       .  S
C706        C709   1.361       .  A
N707        C708   1.370       .  A
N707        H717   1.044       .  S
C708        C824   1.569       .  S
C708        C709   1.408   1_565  A
C709        H715   1.079       .  S
N710        C711   1.356       .  A
N710        H718   1.045       .  S
C711        C712   1.409       .  A
C712        H716   1.082       .  S
C719        C724   1.374       .  A
C719        C720   1.412       .  A
C719        N725   1.345       .  A
C720        C721   1.410       .  A
C720        H731   1.083       .  S
C721        C730   1.389       .  A
C721        C722   1.382       .  A
C722        C723   1.412       .  A
C722        N728   1.350       .  A
C723        C724   1.411       .  A
C723        H732   1.082       .  S
C724        C727   1.386       .  A
N725        C726   1.372       .  A
N725        H735   1.046       .  S
C726        C727   1.414       .  A
C727        H733   1.076       .  S
N728        C729   1.360       .  A
N728        H736   1.045       .  S
C729        C730   1.401       .  A
C730        H734   1.083       .  S
C737        C742   1.383       .  A
C737        C738   1.410       .  A
C737        N743   1.351       .  A
C738        C739   1.410       .  A
C738        H749   1.082       .  S
C739        C748   1.384       .  A
C739        C740   1.383       .  A
C740        C741   1.405       .  A
C740        N746   1.349       .  A
C741        C742   1.408       .  A
C741        H750   1.079       .  S
C742        C745   1.383       .  A
N743        C744   1.360       .  A
N743        H753   1.045       .  S
C744        C745   1.399       .  A
C745        H751   1.082       .  S
N746        C747   1.357       .  A
N746        H754   1.044       .  S
C747        C748   1.401       .  A
C748        H752   1.082       .  S
C755        C760   1.382       .  A
C755        C756   1.412       .  A
C755        N761   1.352       .  A
C756        C757   1.413       .  A
C756        H767   1.080       .  S
C757        C766   1.391       .  A
C757        C758   1.383       .  A
C758        C759   1.407       .  A
C758        N764   1.346       .  A
C759        C760   1.406       .  A
C759        H768   1.082       .  S
C760        C763   1.381       .  A
N761        C762   1.361       .  A
N761        H771   1.044       .  S
C762        C763   1.398       .  A
C763        H769   1.082       .  S
N764        C765   1.358       .  A
N764        H772   1.045       .  S
C765        C766   1.403       .  A
C766        H770   1.082       .  S
C773        C778   1.374       .  A
C773        C774   1.415       .  A
C773        N779   1.351       .  A
C774        C775   1.415       .  A
C774        H785   1.082       .  S
C775        C784   1.391       .  A
C775        C776   1.383       .  A
C776        C777   1.404       .  A
C776        N782   1.346       .  A
C777        C778   1.404       .  A
C777        H786   1.082       .  S
C778        C781   1.374       .  A
N779        C780   1.372       .  A
N779        H789   1.039       .  S
C780        C781   1.414       .  A
C781        H787   1.082       .  S
N782        C783   1.356       .  A
N782        H790   1.045       .  S
C783        C784   1.404       .  A
C784        H788   1.082       .  S
C791        C796   1.377       .  A
C791        C792   1.422       .  A
C791        N797   1.361       .  A
C792        C793   1.423       .  A
C792        H803   1.082       .  S
C793        C802   1.399       .  A
C793        C794   1.382       .  A
C794        C795   1.406       .  A
C794        N800   1.349       .  A
C795        C796   1.407       .  A
C795        H804   1.082       .  S
C796        C799   1.376       .  A
N797        C798   1.373       .  A
N797        H807   1.042       .  S
C798        C809   1.580       .  S
C798        C799   1.409       .  A
C799        H805   1.080       .  S
N800        C801   1.358       .  A
N800        H808   1.045       .  S
C801        C802   1.409       .  A
C802        H806   1.082       .  S
C809        C853   1.757       .  S
C809       C1026   1.592   1_554  S
C809       C1588   1.601   1_554  S
O810       Ni818   1.927       .  S
O810        C820   1.283       .  A
O811       Ni818   1.943       .  S
O811        C821   1.284       .  A
O812       Ni818   1.934       .  S
O812        C822   1.285       .  A
O813       Ni818   1.940       .  S
O813        C823   1.285       .  A
O814       Ni819   1.929       .  S
O814        C823   1.283       .  A
O815       Ni819   1.940       .  S
O815        C822   1.284       .  A
O816       Ni819   1.944       .  S
O816        C821   1.287       .  A
O817       Ni819   1.940       .  S
O817        C820   1.285       .  A
Ni818      Ni819   2.383       .  S
C820       C1552   1.490       .  S
C821       C1609   1.501       .  S
C822       C1591   1.494       .  S
C823       C1573   1.492       .  S
C824       C1534   1.612   1_564  S
O825       Ni833   1.939       .  S
O825        C835   1.287       .  A
O826       Ni833   1.938       .  S
O826        C836   1.285       .  A
O827       Ni833   1.920       .  S
O827        C837   1.281       .  A
O828       Ni833   1.927       .  S
O828        C838   1.281       .  A
O829       Ni834   1.940       .  S
O829        C838   1.286       .  A
O830       Ni834   1.939       .  S
O830        C837   1.285       .  A
O831       Ni834   1.921       .  S
O831        C836   1.281       .  A
O832       Ni834   1.935       .  S
O832        C835   1.282       .  A
Ni833      Ni834   2.385       .  S
C835       C1519   1.495       .  S
C836       C1498   1.485       .  S
C837       C1480   1.485       .  S
C838       C1537   1.490       .  S
O839       Ni847   1.919   1_556  S
O839        C849   1.280       .  A
O840        C850   1.281       .  A
O841        C851   1.284       .  A
O842       Ni847   1.923   1_556  S
O842        C852   1.282       .  A
O843        C852   1.285       .  A
O844       Ni848   1.938       .  S
O844        C851   1.284       .  A
O845       Ni848   1.944       .  S
O845        C850   1.286       .  A
O846        C849   1.287       .  A
C849       C1555   1.488       .  S
C850       C1483   1.488       .  S
C851       C1570   1.490       .  S
C852       C1501   1.486       .  S
C853       C1462   1.569   1_554  S
O854       Ni862   1.917       .  S
O854        C864   1.281       .  A
O855       Ni862   1.920       .  S
O855        C865   1.281       .  A
O856       Ni862   1.932       .  S
O856        C866   1.282       .  A
O857       Ni862   1.924       .  S
O857        C867   1.282       .  A
O858       Ni863   1.939       .  S
O858        C867   1.285       .  A
O859       Ni863   1.933       .  S
O859        C866   1.284       .  A
O860       Ni863   1.927       .  S
O860        C865   1.282       .  A
O861       Ni863   1.919       .  S
O861        C864   1.281       .  A
Ni862      Ni863   2.387       .  S
C864       C1429   1.470       .  S
C865       C1447   1.475       .  S
C866       C1465   1.482       .  S
C867       C1408   1.486       .  S
C868        C941   1.769       .  S
C868       C1390   1.579       .  S
O869       Ni877   1.922       .  S
O869        C879   1.280       .  A
O870       Ni877   1.923       .  S
O870        C880   1.282       .  A
O871       Ni877   1.938       .  S
O871        C881   1.285       .  A
O872       Ni877   1.945       .  S
O872        C882   1.286       .  A
O873       Ni878   1.940       .  S
O873        C882   1.284       .  A
O874       Ni878   1.929       .  S
O874        C881   1.283       .  A
O875       Ni878   1.929       .  S
O875        C880   1.283       .  A
O876       Ni878   1.945       .  S
O876        C879   1.286       .  A
Ni877      Ni878   2.385       .  S
C879       C1375   1.485       .  S
C880       C1354   1.481       .  S
C881       C1336   1.489       .  S
C882       C1393   1.496       .  S
O883       Ni891   1.926       .  S
O883        C893   1.281       .  A
O884        C894   1.283       .  A
O885        C895   1.280       .  A
O886       Ni891   1.918       .  S
O886        C896   1.281       .  A
O887        C896   1.281       .  A
O888       Ni892   1.933       .  S
O888        C895   1.284       .  A
O889       Ni892   1.932       .  S
O889        C894   1.283       .  A
O890        C893   1.286       .  A
C893       C1339   1.489       .  S
C894       C1411   1.484       .  S
C895       C1357   1.478       .  S
C896       C1426   1.473       .  S
C897       C1318   1.556       .  S
O898       Ni906   1.925       .  S
O898        C908   1.283       .  A
O899       Ni906   1.931       .  S
O899        C909   1.282       .  A
O900       Ni906   1.923       .  S
O900        C910   1.282       .  A
O901       Ni906   1.927       .  S
O901        C911   1.283       .  A
O902       Ni907   1.925       .  S
O902        C911   1.282       .  A
O903       Ni907   1.937       .  S
O903        C910   1.284       .  A
O904       Ni907   1.927       .  S
O904        C909   1.282       .  A
O905       Ni907   1.928       .  S
O905        C908   1.282       .  A
Ni906      Ni907   2.387       .  S
C908       C1282   1.481       .  S
C909       C1300   1.478       .  S
C910       C1321   1.482       .  S
C911       C1264   1.480       .  S
C912       C1249   1.597   1_554  S
O913       Ni921   1.926       .  S
O913        C923   1.283       .  A
O914       Ni921   1.932       .  S
O914        C924   1.284       .  A
O915       Ni921   1.927       .  S
O915        C925   1.281       .  A
O916       Ni921   1.918       .  S
O916        C926   1.282       .  A
O917       Ni922   1.940       .  S
O917        C926   1.285       .  A
O918       Ni922   1.939       .  S
O918        C925   1.286       .  A
O919       Ni922   1.928       .  S
O919        C924   1.282       .  A
O920       Ni922   1.910       .  S
O920        C923   1.279       .  A
Ni921      Ni922   2.386       .  S
C923       C1213   1.471       .  S
C924       C1231   1.486       .  S
C925       C1246   1.488       .  S
C926       C1195   1.485       .  S
O927       Ni935   1.936       .  S
O927        C937   1.284       .  A
O928        C938   1.283       .  A
O929        C939   1.284       .  A
O930       Ni935   1.930       .  S
O930        C940   1.283       .  A
O931        C940   1.283       .  A
O932       Ni936   1.922   1_556  S
O932        C939   1.281       .  A
O933       Ni936   1.916   1_556  S
O933        C938   1.280       .  A
O934        C937   1.280       .  A
C937       C1285   1.479       .  S
C938       C1210   1.475       .  S
C939       C1267   1.481       .  S
C940       C1192   1.484       .  S
C941       C1023   1.582       .  S
C941       C1156   1.558       .  S
O942       Ni950   1.931       .  S
O942        C952   1.284       .  A
O943       Ni950   1.928       .  S
O943        C953   1.282       .  A
O944       Ni950   1.917       .  S
O944        C954   1.280       .  A
O945       Ni950   1.927       .  S
O945        C955   1.283       .  A
O946       Ni951   1.937       .  S
O946        C955   1.284       .  A
O947       Ni951   1.929       .  S
O947        C954   1.283       .  A
O948       Ni951   1.927       .  S
O948        C953   1.283       .  A
O949       Ni951   1.935       .  S
O949        C952   1.283       .  A
Ni950      Ni951   2.386       .  S
C952       C1174   1.488       .  S
C953       C1123   1.483       .  S
C954       C1141   1.477       .  S
C955       C1159   1.490       .  S
C956       C1105   1.557   1_565  S
O957       Ni965   1.920       .  S
O957        C967   1.281       .  A
O958       Ni965   1.927       .  S
O958        C968   1.281       .  A
O959       Ni965   1.934       .  S
O959        C969   1.284       .  A
O960       Ni965   1.942       .  S
O960        C970   1.285       .  A
O961       Ni966   1.926   1_455  S
O961        C970   1.283       .  A
O962       Ni966   1.939       .  S
O962        C969   1.284   1_655  A
O963       Ni966   1.922       .  S
O963        C968   1.282   1_655  A
O964       Ni966   1.927   1_455  S
O964        C967   1.283       .  A
Ni965      Ni966   2.386   1_455  S
C967       C1066   1.478       .  S
C968       C1084   1.474       .  S
C969       C1102   1.488       .  S
C970       C1051   1.490       .  S
O971       Ni979   1.930       .  S
O971        C981   1.283       .  A
O972        C982   1.284       .  A
O973        C983   1.282       .  A
O974       Ni979   1.924       .  S
O974        C984   1.282       .  A
O975        C984   1.281       .  A
O976       Ni980   1.927       .  S
O976        C983   1.283       .  A
O977       Ni980   1.930       .  S
O977        C982   1.283       .  A
O978        C981   1.285       .  A
C981       C1048   1.489       .  S
C982       C1120   1.486       .  S
C983       C1069   1.479       .  S
C984       C1138   1.477       .  S
O985       Ni993   2.020       .  S
O986       Ni993   1.898       .  S
O987       Ni993   1.879   1_655  S
O987        C997   1.248   1_655  A
O988       Ni993   1.874       .  S
O988        C998   1.275       .  A
O989       Ni994   1.986       .  S
O990       Ni994   1.947       .  S
O991       Ni994   1.985       .  S
O991        C996   1.280       .  A
O992       Ni994   1.963       .  S
O992        C995   1.308       .  A
O999      Ni1007   1.934       .  S
O1000     Ni1007   1.970       .  S
O1001     Ni1007   1.978       .  S
O1001      C1011   1.286       .  A
O1002     Ni1007   1.978       .  S
O1002      C1012   1.305       .  A
O1003     Ni1008   2.025       .  S
O1004     Ni1008   1.886       .  S
O1005     Ni1008   1.891       .  S
O1005      C1010   1.255       .  A
O1006     Ni1008   2.045       .  S
O1006      C1009   1.303       .  A
O1013     Ni1021   1.956       .  S
O1014     Ni1021   1.918       .  S
O1015     Ni1021   1.917       .  S
O1015      C1025   1.269       .  A
O1016     Ni1021   1.964       .  S
O1016      C1026   1.304       .  A
O1017     Ni1022   1.912       .  S
O1018     Ni1022   1.819       .  S
O1019     Ni1022   1.811       .  S
O1019      C1024   1.273       .  A
O1020     Ni1022   1.904       .  S
O1020      C1023   1.277   1_655  A
O1027     Ni1035   1.900       .  S
O1028     Ni1035   1.884       .  S
O1029     Ni1035   1.896       .  S
O1029      C1039   1.250       .  A
O1030     Ni1035   2.021       .  S
O1030      C1040   1.293       .  A
O1031     Ni1036   1.944       .  S
O1032     Ni1036   1.989       .  S
O1033     Ni1036   1.942       .  S
O1033      C1038   1.274       .  A
O1034     Ni1036   1.979       .  S
O1034      C1037   1.314       .  A
C1041      C1046   1.383       .  A
C1041      C1042   1.405       .  A
C1041      N1047   1.348       .  A
C1042      C1043   1.407       .  A
C1042      H1053   1.080   1_455  S
C1043      C1052   1.382       .  A
C1043      C1044   1.383       .  A
C1044      C1045   1.412       .  A
C1044      N1050   1.352       .  A
C1045      C1046   1.412       .  A
C1045      H1054   1.082       .  S
C1046      C1049   1.387       .  A
N1047      C1048   1.357       .  A
N1047      H1057   1.045   1_455  S
C1048      C1049   1.402       .  A
C1049      H1055   1.082       .  S
N1050      C1051   1.360       .  A
N1050      H1058   1.045       .  S
C1051      C1052   1.399       .  A
C1052      H1056   1.082   1_455  S
C1059      C1064   1.384       .  A
C1059      C1060   1.406       .  A
C1059      N1065   1.346       .  A
C1060      C1061   1.405       .  A
C1060      H1071   1.081   1_455  S
C1061      C1070   1.382       .  A
C1061      C1062   1.384       .  A
C1062      C1063   1.406       .  A
C1062      N1068   1.345       .  A
C1063      C1064   1.405       .  A
C1063      H1072   1.082       .  S
C1064      C1067   1.380       .  A
N1065      C1066   1.357       .  A
N1065      H1075   1.044   1_455  S
C1066      C1067   1.397       .  A
C1067      H1073   1.082       .  S
N1068      C1069   1.357       .  A
N1068      H1076   1.045       .  S
C1069      C1070   1.397       .  A
C1070      H1074   1.082   1_455  S
C1077      C1082   1.384       .  A
C1077      C1078   1.413       .  A
C1077      N1083   1.349       .  A
C1078      C1079   1.410       .  A
C1078      H1089   1.082       .  S
C1079      C1088   1.388   1_545  A
C1079      C1080   1.378       .  A
C1080      C1081   1.400       .  A
C1080      N1086   1.336       .  A
C1081      C1082   1.398       .  A
C1081      H1090   1.083   1_455  S
C1082      C1085   1.375       .  A
N1083      C1084   1.359       .  A
N1083      H1093   1.044       .  S
C1084      C1085   1.392       .  A
C1085      H1091   1.083   1_455  S
N1086      C1087   1.366       .  A
N1086      H1094   1.045   1_455  S
C1087      C1088   1.411   1_545  A
C1088      H1092   1.080       .  S
C1095      C1100   1.384       .  A
C1095      C1096   1.404       .  A
C1095      N1101   1.347       .  A
C1096      C1097   1.404       .  A
C1096      H1107   1.082       .  S
C1097      C1106   1.375       .  A
C1097      C1098   1.380       .  A
C1098      C1099   1.416   1_455  A
C1098      N1104   1.356   1_545  A
C1099      C1100   1.417   1_655  A
C1099      H1108   1.082       .  S
C1100      C1103   1.393       .  A
N1101      C1102   1.356       .  A
N1101      H1111   1.045       .  S
C1102      C1103   1.403       .  A
C1103      H1109   1.082   1_455  S
N1104      C1105   1.365   1_565  A
N1104      H1112   1.044   1_455  S
C1105      C1106   1.407       .  A
C1106      H1110   1.081       .  S
C1113      C1118   1.384       .  A
C1113      C1114   1.406       .  A
C1113      N1119   1.346       .  A
C1114      C1115   1.405       .  A
C1114      H1125   1.082       .  S
C1115      C1124   1.381       .  A
C1115      C1116   1.384       .  A
C1116      C1117   1.410       .  A
C1116      N1122   1.349       .  A
C1117      C1118   1.409       .  A
C1117      H1126   1.082   1_455  S
C1118      C1121   1.386       .  A
N1119      C1120   1.357       .  A
N1119      H1129   1.045       .  S
C1120      C1121   1.401       .  A
C1121      H1127   1.082   1_455  S
N1122      C1123   1.359       .  A
N1122      H1130   1.045       .  S
C1123      C1124   1.397       .  A
C1124      H1128   1.082       .  S
C1131      C1136   1.384       .  A
C1131      C1132   1.406       .  A
C1131      N1137   1.345       .  A
C1132      C1133   1.405       .  A
C1132      H1143   1.082       .  S
C1133      C1142   1.382       .  A
C1133      C1134   1.383       .  A
C1134      C1135   1.403       .  A
C1134      N1140   1.344       .  A
C1135      C1136   1.404       .  A
C1135      H1144   1.080   1_455  S
C1136      C1139   1.380       .  A
N1137      C1138   1.357       .  A
N1137      H1147   1.045       .  S
C1138      C1139   1.397       .  A
C1139      H1145   1.082   1_455  S
N1140      C1141   1.356       .  A
N1140      H1148   1.045       .  S
C1141      C1142   1.397       .  A
C1142      H1146   1.082       .  S
C1149      C1154   1.379       .  A
C1149      C1150   1.406       .  A
C1149      N1155   1.343       .  A
C1150      C1151   1.403       .  A
C1150      H1161   1.083   1_455  S
C1151      C1160   1.381       .  A
C1151      C1152   1.382       .  A
C1152      C1153   1.415       .  A
C1152      N1158   1.352       .  A
C1153      C1154   1.413       .  A
C1153      H1162   1.082       .  S
C1154      C1157   1.391       .  A
N1155      C1156   1.367       .  A
N1155      H1165   1.043   1_455  S
C1156      C1157   1.412       .  A
C1157      H1163   1.082       .  S
N1158      C1159   1.362       .  A
N1158      H1166   1.044       .  S
C1159      C1160   1.397       .  A
C1160      H1164   1.083       .  S
C1167      C1172   1.383       .  A
C1167      C1168   1.411       .  A
C1167      N1173   1.351       .  A
C1168      C1169   1.411       .  A
C1168      H1179   1.083       .  S
C1169      C1178   1.380       .  A
C1169      C1170   1.371       .  A
C1170      C1171   1.407       .  A
C1170      N1176   1.344       .  A
C1171      C1172   1.407       .  A
C1171      H1180   1.082       .  S
C1172      C1175   1.381       .  A
N1173      C1174   1.360       .  A
N1173      H1183   1.045       .  S
C1174      C1175   1.398       .  A
C1175      H1181   1.082       .  S
N1176      C1177   1.371       .  A
N1176      H1184   1.045       .  S
C1177      C1178   1.417       .  A
C1178      H1182   1.069       .  S
C1185      C1190   1.383       .  A
C1185      C1186   1.404       .  A
C1185      N1191   1.346       .  A
C1186      C1187   1.404       .  A
C1186      H1197   1.082   1_565  S
C1187      C1196   1.377       .  A
C1187      C1188   1.383       .  A
C1188      C1189   1.410       .  A
C1188      N1194   1.352       .  A
C1189      C1190   1.412       .  A
C1189      H1198   1.082       .  S
C1190      C1193   1.386       .  A
N1191      C1192   1.356       .  A
N1191      H1201   1.045       .  S
C1192      C1193   1.400       .  A
C1193      H1199   1.081       .  S
N1194      C1195   1.360       .  A
N1194      H1202   1.045       .  S
C1195      C1196   1.397       .  A
C1196      H1200   1.082       .  S
C1203      C1208   1.384       .  A
C1203      C1204   1.402       .  A
C1203      N1209   1.344       .  A
C1204      C1205   1.400       .  A
C1204      H1215   1.080       .  S
C1205      C1214   1.375       .  A
C1205      C1206   1.384       .  A
C1206      C1207   1.405       .  A
C1206      N1212   1.346       .  A
C1207      C1208   1.405       .  A
C1207      H1216   1.082   1_565  S
C1208      C1211   1.379       .  A
N1209      C1210   1.355       .  A
N1209      H1219   1.044       .  S
C1210      C1211   1.397       .  A
C1211      H1217   1.082       .  S
N1212      C1213   1.356       .  A
N1212      H1220   1.045   1_565  S
C1213      C1214   1.395       .  A
C1214      H1218   1.083       .  S
C1221      C1226   1.377       .  A
C1221      C1222   1.406       .  A
C1221      N1227   1.342       .  A
C1222      C1223   1.404       .  A
C1222      H1233   1.082   1_565  S
C1223      C1232   1.382       .  A
C1223      C1224   1.383       .  A
C1224      C1225   1.411       .  A
C1224      N1230   1.349       .  A
C1225      C1226   1.410       .  A
C1225      H1234   1.082       .  S
C1226      C1229   1.386       .  A
N1227      C1228   1.365       .  A
N1227      H1237   1.043   1_565  S
C1228      C1229   1.413       .  A
C1229      H1235   1.079       .  S
N1230      C1231   1.360       .  A
N1230      H1238   1.045       .  S
C1231      C1232   1.397       .  A
C1232      H1236   1.082   1_565  S
C1239      C1244   1.383       .  A
C1239      C1240   1.404       .  A
C1239      N1245   1.347       .  A
C1240      C1241   1.405       .  A
C1240      H1251   1.083       .  S
C1241      C1250   1.374       .  A
C1241      C1242   1.378       .  A
C1242      C1243   1.414   1_565  A
C1242      N1248   1.353       .  A
C1243      C1244   1.413   1_545  A
C1243      H1252   1.082       .  S
C1244      C1247   1.390       .  A
N1245      C1246   1.356       .  A
N1245      H1255   1.045       .  S
C1246      C1247   1.402       .  A
C1247      H1253   1.082   1_565  S
N1248      C1249   1.367       .  A
N1248      H1256   1.036   1_565  S
C1249      C1250   1.413       .  A
C1250      H1254   1.083       .  S
C1257      C1262   1.384       .  A
C1257      C1258   1.407       .  A
C1257      N1263   1.346       .  A
C1258      C1259   1.404       .  A
C1258      H1269   1.081       .  S
C1259      C1268   1.383       .  A
C1259      C1260   1.383       .  A
C1260      C1261   1.408       .  A
C1260      N1266   1.346       .  A
C1261      C1262   1.406       .  A
C1261      H1270   1.082       .  S
C1262      C1265   1.383       .  A
N1263      C1264   1.357       .  A
N1263      H1273   1.045       .  S
C1264      C1265   1.398       .  A
C1265      H1271   1.082       .  S
N1266      C1267   1.358       .  A
N1266      H1274   1.045       .  S
C1267      C1268   1.396       .  A
C1268      H1272   1.082       .  S
C1275      C1280   1.383       .  A
C1275      C1276   1.410       .  A
C1275      N1281   1.348       .  A
C1276      C1277   1.408       .  A
C1276      H1287   1.081       .  S
C1277      C1286   1.387       .  A
C1277      C1278   1.383       .  A
C1278      C1279   1.404       .  A
C1278      N1284   1.342       .  A
C1279      C1280   1.402       .  A
C1279      H1288   1.082       .  S
C1280      C1283   1.380       .  A
N1281      C1282   1.359       .  A
N1281      H1291   1.045       .  S
C1282      C1283   1.396       .  A
C1283      H1289   1.082       .  S
N1284      C1285   1.356       .  A
N1284      H1292   1.045       .  S
C1285      C1286   1.399       .  A
C1286      H1290   1.082       .  S
C1293      C1298   1.384       .  A
C1293      C1294   1.410       .  A
C1293      N1299   1.350       .  A
C1294      C1295   1.409       .  A
C1294      H1305   1.082       .  S
C1295      C1304   1.383       .  A
C1295      C1296   1.377       .  A
C1296      C1297   1.406       .  A
C1296      N1302   1.345       .  A
C1297      C1298   1.405       .  A
C1297      H1306   1.082       .  S
C1298      C1301   1.381       .  A
N1299      C1300   1.358       .  A
N1299      H1309   1.044       .  S
C1300      C1301   1.395       .  A
C1301      H1307   1.082       .  S
N1302      C1303   1.368       .  A
N1302      H1310   1.043       .  S
C1303      C1304   1.412       .  A
C1304      H1308   1.079       .  S
C1311      C1316   1.379       .  A
C1311      C1312   1.413       .  A
C1311      N1317   1.349       .  A
C1312      C1313   1.412       .  A
C1312      H1323   1.082       .  S
C1313      C1322   1.390       .  A
C1313      C1314   1.384       .  A
C1314      C1315   1.403       .  A
C1314      N1320   1.343       .  A
C1315      C1316   1.401       .  A
C1315      H1324   1.082       .  S
C1316      C1319   1.376       .  A
N1317      C1318   1.367       .  A
N1317      H1327   1.044       .  S
C1318      C1319   1.406       .  A
C1319      H1325   1.082       .  S
N1320      C1321   1.355       .  A
N1320      H1328   1.045       .  S
C1321      C1322   1.401       .  A
C1322      H1326   1.082       .  S
C1329      C1334   1.383       .  A
C1329      C1330   1.410       .  A
C1329      N1335   1.348       .  A
C1330      C1331   1.407       .  A
C1330      H1341   1.082       .  S
C1331      C1340   1.387       .  A
C1331      C1332   1.382       .  A
C1332      C1333   1.411       .  A
C1332      N1338   1.348       .  A
C1333      C1334   1.409       .  A
C1333      H1342   1.082       .  S
C1334      C1337   1.387       .  A
N1335      C1336   1.359       .  A
N1335      H1345   1.045       .  S
C1336      C1337   1.400       .  A
C1337      H1343   1.082       .  S
N1338      C1339   1.360       .  A
N1338      H1346   1.045       .  S
C1339      C1340   1.399       .  A
C1340      H1344   1.082       .  S
C1347      C1352   1.383       .  A
C1347      C1348   1.408       .  A
C1347      N1353   1.348       .  A
C1348      C1349   1.407       .  A
C1348      H1359   1.080       .  S
C1349      C1358   1.385       .  A
C1349      C1350   1.383       .  A
C1350      C1351   1.404       .  A
C1350      N1356   1.343       .  A
C1351      C1352   1.403       .  A
C1351      H1360   1.082       .  S
C1352      C1355   1.379       .  A
N1353      C1354   1.359       .  A
N1353      H1363   1.044       .  S
C1354      C1355   1.396       .  A
C1355      H1361   1.082       .  S
N1356      C1357   1.356       .  A
N1356      H1364   1.045       .  S
C1357      C1358   1.397       .  A
C1358      H1362   1.082       .  S
C1365      C1370   1.379       .  A
C1365      C1366   1.409       .  A
C1365      N1371   1.351       .  A
C1366      C1367   1.409       .  A
C1366      H1377   1.082       .  S
C1367      C1376   1.383       .  A
C1367      C1368   1.384       .  A
C1368      C1369   1.412       .  A
C1368      N1374   1.353       .  A
C1369      C1370   1.412       .  A
C1369      H1378   1.082       .  S
C1370      C1373   1.384       .  A
N1371      C1372   1.369       .  A
N1371      H1381   1.042       .  S
C1372      C1373   1.412       .  A
C1373      H1379   1.078       .  S
N1374      C1375   1.359       .  A
N1374      H1382   1.044       .  S
C1375      C1376   1.397       .  A
C1376      H1380   1.082       .  S
C1383      C1388   1.375       .  A
C1383      C1384   1.413       .  A
C1383      N1389   1.352       .  A
C1384      C1385   1.413       .  A
C1384      H1395   1.082       .  S
C1385      C1394   1.390       .  A
C1385      C1386   1.383       .  A
C1386      C1387   1.412       .  A
C1386      N1392   1.353       .  A
C1387      C1388   1.412       .  A
C1387      H1396   1.082       .  S
C1388      C1391   1.383       .  A
N1389      C1390   1.367       .  A
N1389      H1399   1.042       .  S
C1390      C1391   1.415       .  A
C1391      H1397   1.081       .  S
N1392      C1393   1.361       .  A
N1392      H1400   1.045       .  S
C1393      C1394   1.400       .  A
C1394      H1398   1.082       .  S
C1401      C1406   1.383       .  A
C1401      C1402   1.410       .  A
C1401      N1407   1.350       .  A
C1402      C1403   1.410       .  A
C1402      H1413   1.082       .  S
C1403      C1412   1.387       .  A
C1403      C1404   1.384       .  A
C1404      C1405   1.405       .  A
C1404      N1410   1.346       .  A
C1405      C1406   1.405       .  A
C1405      H1414   1.082       .  S
C1406      C1409   1.380       .  A
N1407      C1408   1.359       .  A
N1407      H1417   1.045       .  S
C1408      C1409   1.398       .  A
C1409      H1415   1.082       .  S
N1410      C1411   1.356       .  A
N1410      H1418   1.045       .  S
C1411      C1412   1.401       .  A
C1412      H1416   1.082       .  S
C1419      C1424   1.384       .  A
C1419      C1420   1.405       .  A
C1419      N1425   1.345       .  A
C1420      C1421   1.403       .  A
C1420      H1431   1.081       .  S
C1421      C1430   1.379       .  A
C1421      C1422   1.384       .  A
C1422      C1423   1.403       .  A
C1422      N1428   1.343       .  A
C1423      C1424   1.402       .  A
C1423      H1432   1.082       .  S
C1424      C1427   1.377       .  A
N1425      C1426   1.357       .  A
N1425      H1435   1.044       .  S
C1426      C1427   1.395       .  A
C1427      H1433   1.082       .  S
N1428      C1429   1.355       .  A
N1428      H1436   1.045       .  S
C1429      C1430   1.396       .  A
C1430      H1434   1.083       .  S
C1437      C1442   1.380       .  A
C1437      C1438   1.408       .  A
C1437      N1443   1.346       .  A
C1438      C1439   1.407       .  A
C1438      H1449   1.082       .  S
C1439      C1448   1.384       .  A
C1439      C1440   1.384       .  A
C1440      C1441   1.403       .  A
C1440      N1446   1.343       .  A
C1441      C1442   1.402       .  A
C1441      H1450   1.082       .  S
C1442      C1445   1.376       .  A
N1443      C1444   1.363       .  A
N1443      H1453   1.044       .  S
C1444      C1445   1.404       .  A
C1445      H1451   1.082       .  S
N1446      C1447   1.355       .  A
N1446      H1454   1.045       .  S
C1447      C1448   1.398       .  A
C1448      H1452   1.082       .  S
C1455      C1460   1.378       .  A
C1455      C1456   1.407       .  A
C1455      N1461   1.342       .  A
C1456      C1457   1.404       .  A
C1456      H1467   1.083       .  S
C1457      C1466   1.382       .  A
C1457      C1458   1.383       .  A
C1458      C1459   1.414       .  A
C1458      N1464   1.352       .  A
C1459      C1460   1.413       .  A
C1459      H1468   1.082       .  S
C1460      C1463   1.391       .  A
N1461      C1462   1.370       .  A
N1461      H1471   1.043       .  S
C1462      C1463   1.413       .  A
C1463      H1469   1.082       .  S
N1464      C1465   1.359       .  A
N1464      H1472   1.044       .  S
C1465      C1466   1.395       .  A
C1466      H1470   1.083       .  S
C1473      C1478   1.383       .  A
C1473      C1474   1.411       .  A
C1473      N1479   1.350       .  A
C1474      C1475   1.411       .  A
C1474      H1485   1.080       .  S
C1475      C1484   1.390       .  A
C1475      C1476   1.383       .  A
C1476      C1477   1.406       .  A
C1476      N1482   1.344       .  A
C1477      C1478   1.404       .  A
C1477      H1486   1.082       .  S
C1478      C1481   1.380       .  A
N1479      C1480   1.359       .  A
N1479      H1489   1.045       .  S
C1480      C1481   1.398       .  A
C1481      H1487   1.083       .  S
N1482      C1483   1.358       .  A
N1482      H1490   1.045       .  S
C1483      C1484   1.401       .  A
C1484      H1488   1.081       .  S
C1491      C1496   1.383       .  A
C1491      C1492   1.408       .  A
C1491      N1497   1.347       .  A
C1492      C1493   1.408       .  A
C1492      H1503   1.081       .  S
C1493      C1502   1.388       .  A
C1493      C1494   1.383       .  A
C1494      C1495   1.408       .  A
C1494      N1500   1.346       .  A
C1495      C1496   1.406       .  A
C1495      H1504   1.082       .  S
C1496      C1499   1.385       .  A
N1497      C1498   1.359       .  A
N1497      H1507   1.045       .  S
C1498      C1499   1.398       .  A
C1499      H1505   1.082       .  S
N1500      C1501   1.358       .  A
N1500      H1508   1.045       .  S
C1501      C1502   1.401       .  A
C1502      H1506   1.082       .  S
C1509      C1514   1.377       .  A
C1509      C1510   1.422       .  A
C1509      N1515   1.367   1_545  A
C1510      C1511   1.426       .  A
C1510      H1521   1.082       .  S
C1511      C1520   1.396       .  A
C1511      C1512   1.384       .  A
C1512      C1513   1.396       .  A
C1512      N1518   1.345       .  A
C1513      C1514   1.399       .  A
C1513      H1522   1.083       .  S
C1514      C1517   1.357   1_545  A
N1515      C1516   1.370       .  A
N1515      H1525   1.044       .  S
C1516      C1517   1.406       .  A
C1517      H1523   1.079   1_565  S
N1518      C1519   1.354       .  A
N1518      H1526   1.045       .  S
C1519      C1520   1.409       .  A
C1520      H1524   1.082       .  S
C1527      C1532   1.374       .  A
C1527      C1528   1.410       .  A
C1527      N1533   1.344       .  A
C1528      C1529   1.407       .  A
C1528      H1539   1.082       .  S
C1529      C1538   1.385       .  A
C1529      C1530   1.382       .  A
C1530      C1531   1.412       .  A
C1530      N1536   1.350       .  A
C1531      C1532   1.412       .  A
C1531      H1540   1.083       .  S
C1532      C1535   1.384       .  A
N1533      C1534   1.371       .  A
N1533      H1543   1.046       .  S
C1534      C1535   1.415       .  A
C1535      H1541   1.076       .  S
N1536      C1537   1.361       .  A
N1536      H1544   1.045       .  S
C1537      C1538   1.399       .  A
C1538      H1542   1.082       .  S
C1545      C1550   1.383       .  A
C1545      C1546   1.410       .  A
C1545      N1551   1.351       .  A
C1546      C1547   1.410       .  A
C1546      H1557   1.082       .  S
C1547      C1556   1.384       .  A
C1547      C1548   1.383       .  A
C1548      C1549   1.406       .  A
C1548      N1554   1.350       .  A
C1549      C1550   1.408       .  A
C1549      H1558   1.080       .  S
C1550      C1553   1.383       .  A
N1551      C1552   1.360       .  A
N1551      H1561   1.045       .  S
C1552      C1553   1.399       .  A
C1553      H1559   1.082       .  S
N1554      C1555   1.358       .  A
N1554      H1562   1.044       .  S
C1555      C1556   1.401       .  A
C1556      H1560   1.082       .  S
C1563      C1568   1.383       .  A
C1563      C1564   1.414       .  A
C1563      N1569   1.353       .  A
C1564      C1565   1.414       .  A
C1564      H1575   1.082       .  S
C1565      C1574   1.391       .  A
C1565      C1566   1.383       .  A
C1566      C1567   1.406       .  A
C1566      N1572   1.346       .  A
C1567      C1568   1.405       .  A
C1567      H1576   1.082       .  S
C1568      C1571   1.381       .  A
N1569      C1570   1.362       .  A
N1569      H1579   1.045       .  S
C1570      C1571   1.397       .  A
C1571      H1577   1.082       .  S
N1572      C1573   1.357       .  A
N1572      H1580   1.045       .  S
C1573      C1574   1.404       .  A
C1574      H1578   1.082       .  S
C1581      C1586   1.374       .  A
C1581      C1582   1.417       .  A
C1581      N1587   1.353       .  A
C1582      C1583   1.417       .  A
C1582      H1593   1.082       .  S
C1583      C1592   1.395       .  A
C1583      C1584   1.383       .  A
C1584      C1585   1.404       .  A
C1584      N1590   1.346       .  A
C1585      C1586   1.403       .  A
C1585      H1594   1.082       .  S
C1586      C1589   1.373       .  A
N1587      C1588   1.372       .  A
N1587      H1597   1.041       .  S
C1588      C1589   1.413       .  A
C1589      H1595   1.082       .  S
N1590      C1591   1.356       .  A
N1590      H1598   1.045       .  S
C1591      C1592   1.406       .  A
C1592      H1596   1.082       .  S
C1599      C1604   1.377       .  A
C1599      C1600   1.420       .  A
C1599      N1605   1.361       .  A
C1600      C1601   1.422       .  A
C1600      H1611   1.082       .  S
C1601      C1610   1.397       .  A
C1601      C1602   1.383       .  A
C1602      C1603   1.405       .  A
C1602      N1608   1.349       .  A
C1603      C1604   1.406       .  A
C1603      H1612   1.082       .  S
C1604      C1607   1.374       .  A
N1605      C1606   1.371       .  A
N1605      H1615   1.042       .  S
C1606      C1607   1.410       .  A
C1607      H1613   1.081       .  S
N1608      C1609   1.357       .  A
N1608      H1616   1.045       .  S
C1609      C1610   1.408       .  A
C1610      H1614   1.082       .  S
