geometry optimzed in LAMMPS
_audit_creation_date              2020-11-30 
_audit_creation_method            'lammps2cif' 
_symmetry_space_group_name_H-M    'P1' 
_symmetry_Int_Tables_number       1 
_symmetry_cell_setting            triclinic 
loop_ 
_symmetry_equiv_pos_as_xyz 
  x,y,z 
_cell_length_a                    37.83100778 
_cell_length_b                    38.09121558604854 
_cell_length_c                    31.28666136955115 
_cell_angle_alpha                 90.0227257906989 
_cell_angle_beta                  90.11833772425793 
_cell_angle_gamma                 120.42724453987087 
loop_ 
_atom_site_label 
_atom_site_type_symbol 
_atom_site_fract_x 
_atom_site_fract_y 
_atom_site_fract_z 
_atom_site_charge 
Zr1        Zr  0.16772416  0.73350640  0.11657885     2.17500
O2          O  0.11168207  0.66781214  0.09214643    -0.51700
O3          O  0.18903082  0.75413507  0.04240352    -0.74900
O4          O  0.10633752  0.73535744  0.09735426    -0.81700
O5          O  0.22432563  0.67868276  0.14934483    -0.83500
O6          O  0.10698933  0.78822597  0.13179005    -0.79100
O7          O  0.17422015  0.67399279  0.10534977    -0.90700
O8          O  0.24610647  0.81689761  0.04189808    -0.76700
O9          O  0.19493645  0.80498227  0.11279395    -0.86200
O10         O  0.24023604  0.76336556  0.11835136    -0.85900
O11         O  0.14069765  0.74913152  0.17870734    -0.72600
O12         O  0.18287247  0.71259438  0.18329536    -0.84700
Zr13       Zr  0.25781398  0.83298994  0.24293848     2.26400
Zr14       Zr  0.16895421  0.82126572  0.17490521     2.06300
Zr15       Zr  0.25564562  0.74389360  0.18534775     2.10000
Zr16       Zr  0.26753656  0.83479376  0.11543632     1.78800
O17         O  0.25583601  0.69786465  0.23937731    -0.93600
O18         O  0.27223873  0.89677931  0.08767750    -0.41400
O19         O  0.28475632  0.81613294  0.18186774    -0.78000
O20         O  0.24237799  0.85333025  0.17595119    -0.96700
O21         O  0.18519682  0.80253030  0.24208422    -0.90000
O22         O  0.23111870  0.76153345  0.24725607    -0.92800
C23         C  0.21729367  0.78567692  0.02295041     1.00900
C24         C  0.19614683  0.66027345  0.12116302     1.13900
C25         C  0.09049023  0.75717995  0.10684915     1.04600
O26         O  0.16415671  0.86901340  0.12699852    -0.95000
O27         O  0.19770546  0.88646360  0.21093445    -0.90700
O28         O  0.24971777  0.89189854  0.25217501    -0.83900
C29         C  0.22758336  0.90582769  0.23710162     1.11300
O30         O  0.09380401  0.66754905  0.23591331    -0.97000
Zr31       Zr  0.15867085  0.73108259  0.24512761     1.88900
O32         O  0.23829966  0.81269850  0.31697554    -0.73600
O33         O  0.11520149  0.81517552  0.22241371    -0.52900
O34         O  0.10176267  0.73573471  0.27501993    -0.97500
O35         O  0.15924215  0.67331954  0.27793139    -0.54800
O36         O  0.17877590  0.75222973  0.31854403    -0.74100
C37         C  0.20893719  0.78284976  0.33702956     0.98200
O38         O  0.31152534  0.89733970  0.27305713    -0.62900
O39         O  0.30645815  0.73938933  0.14167312    -0.57700
O40         O  0.32167778  0.83413115  0.25783362    -0.94400
O41         O  0.32021521  0.78111844  0.22269177    -0.92900
O42         O  0.32261829  0.82773146  0.08427994    -0.93200
O43         O  0.33463857  0.89562707  0.12458495    -0.92000
C44         C  0.33741617  0.81253123  0.24698127     1.17100
H45         H  0.24971329  0.75395099  0.09474659     0.33000
H46         H  0.25527017  0.88254981  0.17420457     0.43900
H47         H  0.24043071  0.75440398  0.27280815     0.37400
H48         H  0.11112646  0.73485648  0.17801530     0.33900
H49         H  0.29187750  0.90527631  0.06368511     0.25700
H50         H  0.10686736  0.83390255  0.21026326     0.31600
H51         H  0.09708893  0.72306856  0.30363795     0.37500
H52         H  0.32077971  0.83087703  0.05309045     0.32000
H53         H  0.32800340  0.76800026  0.13640910     0.30800
H54         H  0.23714433  0.67004087  0.22846856     0.32500
H55         H  0.18465350  0.68532518  0.29526882     0.31500
H56         H  0.33729870  0.90058949  0.15581470     0.35500
H57         H  0.32049355  0.89039370  0.29989237     0.28200
H58         H  0.10410722  0.67261552  0.06333373     0.32500
H59         H  0.08348719  0.65789210  0.26514754     0.35300
H60         H  0.31943094  0.72867903  0.16115151     0.27900
H61         H  0.33518678  0.90717847  0.25344700     0.40800
H62         H  0.17378804  0.86498126  0.09903194     0.30800
H63         H  0.24536453  0.88766548  0.07395173     0.38500
H64         H  0.16446519  0.65956464  0.25397542     0.30300
H65         H  0.09154872  0.78761933  0.21687629     0.30400
H66         H  0.08797431  0.66160638  0.11059449     0.30600
Zr67       Zr  0.16452028  0.72944824  0.61908837     2.17500
O68         O  0.10461390  0.66354378  0.60207019    -0.51700
O69         O  0.18020579  0.74556113  0.54363519    -0.74900
O70         O  0.10389878  0.73410272  0.60208969    -0.81700
O71         O  0.22400671  0.67591575  0.64924767    -0.83500
O72         O  0.10573457  0.78625858  0.63934223    -0.79100
O73         O  0.17186866  0.66983632  0.60746693    -0.90700
O74         O  0.23753427  0.80780772  0.54045144    -0.76700
O75         O  0.19037490  0.80091930  0.61487052    -0.86200
O76         O  0.23724375  0.76070038  0.61516482    -0.85900
O77         O  0.14186235  0.74663244  0.68346327    -0.72600
O78         O  0.18539134  0.71059296  0.68325477    -0.84700
Zr79       Zr  0.26271920  0.83204463  0.74123761     2.26400
Zr80       Zr  0.16949049  0.81883619  0.67961224     2.06300
Zr81       Zr  0.25828924  0.74336697  0.68006998     2.10000
Zr82       Zr  0.26289725  0.83184460  0.61192538     1.78800
O83         O  0.26504726  0.69942037  0.73183222    -0.93600
O84         O  0.25990185  0.88891127  0.58058175    -0.41400
O85         O  0.28509894  0.81505198  0.67650799    -0.78000
O86         O  0.24291069  0.85153698  0.67586037    -0.96700
O87         O  0.19001501  0.80046000  0.74446145    -0.90000
O88         O  0.23726795  0.76079669  0.74481317    -0.92800
C89         C  0.20804139  0.77602340  0.52279028     1.00900
C90         C  0.19428348  0.65633812  0.62301143     1.13900
C91         C  0.08856095  0.75606413  0.61332885     1.04600
O92         O  0.16597939  0.86873239  0.63382810    -0.95000
O93         O  0.19984924  0.88455997  0.71500028    -0.90700
O94         O  0.25453752  0.89122968  0.75236454    -0.83900
C95         C  0.23119779  0.90449353  0.73933133     1.11300
O96         O  0.09791011  0.66675058  0.74122268    -0.97000
Zr97       Zr  0.16451083  0.72905685  0.74717193     1.88900
O98         O  0.24383528  0.81233573  0.81642193    -0.73600
O99         O  0.11695848  0.81322982  0.72864031    -0.52900
O100        O  0.11202663  0.73485464  0.78621168    -0.97500
O101        O  0.16861117  0.67034579  0.77150968    -0.54800
O102        O  0.18841776  0.74856591  0.81955511    -0.74100
C103        C  0.21706650  0.78077814  0.83719270     0.98200
O104        O  0.32353255  0.89195822  0.76964790    -0.62900
O105        O  0.30651510  0.74043328  0.63070025    -0.57700
O106        O  0.32838974  0.83402501  0.75006069    -0.94400
O107        O  0.32606904  0.78268795  0.71066602    -0.92900
O108        O  0.31853292  0.82992346  0.57513147    -0.93200
O109        O  0.32874477  0.89502654  0.61513107    -0.92000
C110        C  0.34461272  0.81385280  0.73518052     1.14700
H111        H  0.24539492  0.75122613  0.59052042     0.33000
H112        H  0.25545792  0.88071549  0.67378151     0.43900
H113        H  0.24826751  0.75405380  0.76929696     0.37400
H114        H  0.11229380  0.73243682  0.68448733     0.33900
H115        H  0.27927524  0.89791494  0.55627608     0.25700
H116        H  0.10514797  0.82820501  0.71441307     0.31600
H117        H  0.10724937  0.71872711  0.81260301     0.37500
H118        H  0.32073887  0.84305493  0.54716833     0.32000
H119        H  0.28972882  0.72106774  0.60790239     0.30800
H120        H  0.28994265  0.69902802  0.72292294     0.32500
H121        H  0.15060947  0.65987554  0.79682981     0.31500
H122        H  0.33002695  0.90562434  0.64433987     0.35500
H123        H  0.33034675  0.91417373  0.74896677     0.28200
H124        H  0.09529423  0.66659869  0.57344891     0.32500
H125        H  0.08954149  0.65662212  0.77074728     0.35300
H126        H  0.32001585  0.76728985  0.61641717     0.27900
H127        H  0.31476159  0.89987684  0.79594136     0.40800
H128        H  0.19464137  0.89144448  0.63133541     0.30800
H129        H  0.23253074  0.87646445  0.56693105     0.38500
H130        H  0.19666913  0.68175776  0.78314675     0.30300
H131        H  0.09498003  0.78428578  0.72709859     0.30400
H132        H  0.08288907  0.66034780  0.62202515     0.30600
Zr133      Zr  0.59078949  0.74156582  0.39457459     2.17500
O134        O  0.60192539  0.68780873  0.42116638    -0.51700
O135        O  0.58933102  0.75744657  0.47044544    -0.74900
O136        O  0.65827017  0.74862162  0.40322609    -0.81700
O137        O  0.47577984  0.68696224  0.37301987    -0.83500
O138        O  0.70641832  0.79925886  0.36157171    -0.79100
O139        O  0.52531970  0.67548656  0.39770516    -0.90700
O140        O  0.59403550  0.81897137  0.47572043    -0.76700
O141        O  0.63623714  0.81349369  0.39668177    -0.86200
O142        O  0.54906506  0.77138791  0.40317586    -0.85900
O143        O  0.62746373  0.75975002  0.32771928    -0.72600
O144        O  0.54701341  0.72090259  0.33298484    -0.84700
Zr145      Zr  0.58737146  0.84148019  0.27545402     2.26400
Zr146      Zr  0.67211379  0.83234239  0.32989227     2.06300
Zr147      Zr  0.50719206  0.75292919  0.34068290     2.10000
Zr148      Zr  0.59431531  0.84300610  0.40439044     1.78800
O149        O  0.45149187  0.70618582  0.29399136    -0.93600
O150        O  0.65732011  0.89534148  0.43804668    -0.41400
O151        O  0.55154709  0.82480231  0.34240906    -0.78000
O152        O  0.63072917  0.86324882  0.33817818    -0.96700
O153        O  0.62892926  0.81146393  0.26798801    -0.90000
O154        O  0.54169394  0.76981707  0.27342012    -0.92800
C155        C  0.59158256  0.78711485  0.49236717     1.00900
C156        C  0.48746893  0.66360693  0.38914086     1.13900
C157        C  0.69472505  0.76962062  0.38795218     1.04600
O158        O  0.72705587  0.87988733  0.37679425    -0.95000
O159        O  0.70495456  0.89847823  0.29512038    -0.90700
O160        O  0.65371284  0.90160664  0.26063112    -0.83900
C161        C  0.69140618  0.91649899  0.27125512     1.11300
O162        O  0.57428430  0.67221654  0.27742741    -0.97000
Zr163      Zr  0.58331039  0.73971724  0.26701193     1.88900
O164        O  0.58458823  0.82241575  0.19983869    -0.73600
O165        O  0.71694381  0.83524920  0.27260805    -0.52900
O166        O  0.64031081  0.73719286  0.23405580    -0.97500
O167        O  0.52176802  0.68699763  0.23135320    -0.54800
O168        O  0.58741708  0.76442972  0.19541516    -0.74100
C169        C  0.58661060  0.79458456  0.17848495     0.98200
O170        O  0.58369315  0.89909457  0.24679824    -0.62900
O171        O  0.46157762  0.75221640  0.39601905    -0.57700
O172        O  0.52337922  0.84302979  0.27353492    -0.94400
O173        O  0.47575196  0.78862074  0.31110015    -0.92900
O174        O  0.53590592  0.84275461  0.43742851    -0.93200
O175        O  0.59899326  0.90915207  0.40474475    -0.92000
C176        C  0.48697214  0.82050089  0.28842057     1.17100
H177        H  0.53209964  0.76149789  0.42837741     0.33000
H178        H  0.64716090  0.89252913  0.33987916     0.43900
H179        H  0.52247366  0.76229081  0.25002400     0.37400
H180        H  0.64266230  0.74587878  0.32444140     0.33900
H181        H  0.64827309  0.90297335  0.46435130     0.25700
H182        H  0.74498315  0.85150818  0.28451004     0.31600
H183        H  0.65554030  0.76301900  0.21797244     0.37500
H184        H  0.52578230  0.82103381  0.45930486     0.32000
H185        H  0.46639205  0.78029302  0.39661338     0.30800
H186        H  0.42617399  0.70018049  0.30932760     0.32500
H187        H  0.51355447  0.70153857  0.21107009     0.31500
H188        H  0.59286062  0.91302084  0.37491378     0.35500
H189        H  0.60026433  0.92235577  0.26617646     0.28200
H190        H  0.58330335  0.67564144  0.44580012     0.32500
H191        H  0.57540676  0.66232565  0.24848194     0.35300
H192        H  0.43367021  0.73556490  0.38393176     0.27900
H193        H  0.59874301  0.90630247  0.21935109     0.40800
H194        H  0.72150157  0.90237199  0.38134067     0.30800
H195        H  0.67107581  0.88074917  0.44857210     0.38500
H196        H  0.50037672  0.67672018  0.25374053     0.30300
H197        H  0.71207806  0.80723129  0.27047197     0.30400
H198        H  0.59102933  0.66662042  0.39862645     0.30600
Zr199      Zr  0.59761724  0.74471206  0.89822633     2.17500
O200        O  0.59335280  0.68433272  0.93040286    -0.51700
O201        O  0.59945040  0.76589384  0.97316979    -0.74900
O202        O  0.66423042  0.74864327  0.90516284    -0.81700
O203        O  0.48210215  0.68307373  0.87138854    -0.83500
O204        O  0.71189801  0.79845366  0.86255793    -0.79100
O205        O  0.53276154  0.68026760  0.90779978    -0.90700
O206        O  0.59702609  0.82416701  0.97496503    -0.76700
O207        O  0.64266487  0.81670166  0.89763018    -0.86200
O208        O  0.55429017  0.77308698  0.90330184    -0.85900
O209        O  0.63310401  0.75929571  0.83059223    -0.72600
O210        O  0.55375764  0.72124663  0.83634965    -0.84700
Zr211      Zr  0.59128790  0.83793609  0.77409760     2.26400
Zr212      Zr  0.67783409  0.83194366  0.83011726     2.06300
Zr213      Zr  0.51124992  0.75058229  0.84117087     2.10000
Zr214      Zr  0.59904942  0.84493225  0.90198015     1.78800
O215        O  0.45603062  0.70456627  0.79353691    -0.93600
O216        O  0.66090460  0.89958499  0.93530012    -0.41400
O217        O  0.55524669  0.82270386  0.84072353    -0.78000
O218        O  0.63555035  0.86223880  0.83606016    -0.96700
O219        O  0.63417400  0.80918964  0.76830671    -0.90000
O220        O  0.54600586  0.76616823  0.77388825    -0.92800
C221        C  0.59801714  0.79468258  0.99331078     1.00900
C222        C  0.49543433  0.66456615  0.89475535     1.13900
C223        C  0.70033650  0.76866166  0.88882612     1.04600
O224        O  0.73492631  0.88174099  0.87333456    -0.95000
O225        O  0.70947578  0.89666093  0.79165303    -0.90700
O226        O  0.65686161  0.89796996  0.75835579    -0.83900
C227        C  0.69496680  0.91397257  0.76793554     1.11300
O228        O  0.58289525  0.67125654  0.78040549    -0.97000
Zr229      Zr  0.58902210  0.73747554  0.76951763     1.88900
O230        O  0.58998360  0.81820841  0.69920641    -0.73600
O231        O  0.72214674  0.83030170  0.77479426    -0.52900
O232        O  0.64619826  0.73492217  0.73708379    -0.97500
O233        O  0.52712586  0.68292437  0.73616747    -0.54800
O234        O  0.59205980  0.75985162  0.69659848    -0.74100
C235        C  0.59160243  0.78983353  0.67862255     0.98200
O236        O  0.58554193  0.89488864  0.74670414    -0.62900
O237        O  0.46155025  0.74486716  0.89437473    -0.57700
O238        O  0.52606426  0.83645805  0.76778015    -0.94400
O239        O  0.48043123  0.78809528  0.81302557    -0.92900
O240        O  0.54127636  0.84699882  0.93352438    -0.93200
O241        O  0.60332240  0.91052301  0.89303944    -0.92000
C242        C  0.49084064  0.81706235  0.78611444     1.17100
H243        H  0.53796608  0.76412989  0.92897327     0.33000
H244        H  0.65182521  0.89155861  0.83671925     0.43900
H245        H  0.52693221  0.75785734  0.75026694     0.37400
H246        H  0.64802261  0.74506682  0.82784030     0.33900
H247        H  0.65098415  0.91185563  0.95657154     0.25700
H248        H  0.75026887  0.84748522  0.78619389     0.31600
H249        H  0.66126168  0.76052823  0.72061459     0.37500
H250        H  0.52365811  0.81961799  0.94593603     0.32000
H251        H  0.43465217  0.72367171  0.88299597     0.30800
H252        H  0.43069252  0.69452424  0.81057218     0.32500
H253        H  0.52024323  0.69597379  0.71280670     0.31500
H254        H  0.59378768  0.90997620  0.86341167     0.35500
H255        H  0.60187019  0.91793084  0.76641802     0.28200
H256        H  0.61136481  0.69399771  0.95589091     0.32500
H257        H  0.58201069  0.66040030  0.75141583     0.35300
H258        H  0.46609352  0.73206079  0.91968989     0.27900
H259        H  0.60061288  0.90291667  0.71929539     0.40800
H260        H  0.72428644  0.87699461  0.90292249     0.30800
H261        H  0.67199214  0.88564517  0.95274113     0.38500
H262        H  0.50537380  0.67580150  0.75763976     0.30300
H263        H  0.71738623  0.80225366  0.77565002     0.30400
H264        H  0.60692990  0.67493576  0.91014103     0.30600
Zr265      Zr  0.27226510  0.41902209  0.94393685     2.17500
O266        O  0.33074305  0.41270046  0.92239853    -0.51700
O267        O  0.25666793  0.41981509  0.86830852    -0.74900
O268        O  0.26550157  0.35288762  0.92882600    -0.81700
O269        O  0.33351688  0.53145322  0.98018829    -0.83500
O270        O  0.20797277  0.30258211  0.96089797    -0.79100
O271        O  0.33558464  0.48551880  0.93545495    -0.90700
O272        O  0.19861107  0.42312212  0.86353403    -0.76700
O273        O  0.19977325  0.37896943  0.93514629    -0.86200
O274        O  0.24781659  0.46574528  0.94218794    -0.85900
O275        O  0.24766041  0.37511974  0.00551406    -0.72600
O276        O  0.29243628  0.45455855  0.01110529    -0.84700
Zr277      Zr  0.16888619  0.41554442  0.06298172     2.26400
Zr278      Zr  0.17470531  0.33518006  0.99613582     2.06300
Zr279      Zr  0.26544797  0.49946617  0.01021046     2.10000
Zr280      Zr  0.17552781  0.42561737  0.93464449     1.78800
O281        O  0.30982390  0.54389247  0.06689681    -0.93600
O282        O  0.11752199  0.37132575  0.89594487    -0.41400
O283        O  0.19257172  0.46015870  0.00206846    -0.78000
O284        O  0.14914205  0.38132146  0.99496599    -0.96700
O285        O  0.19370032  0.36930868  0.06394843    -0.90000
O286        O  0.24123009  0.45641310  0.07151418    -0.92800
C287        C  0.22809190  0.42056956  0.84686877     1.00900
C288        C  0.35168986  0.52110555  0.95277327     1.13900
C289        C  0.24089906  0.31546608  0.93892594     1.04600
O290        O  0.12961313  0.29408371  0.93822154    -0.95000
O291        O  0.10697617  0.30273072  0.02845265    -0.90700
O292        O  0.10669896  0.34989967  0.07269771    -0.83900
C293        C  0.08952365  0.31425776  0.05563150     1.11300
O294        O  0.32616134  0.40259762  0.06923612    -0.97000
Zr295      Zr  0.26614041  0.41047596  0.07178985     1.88900
O296        O  0.18476705  0.41435275  0.13896638    -0.73600
O297        O  0.15967342  0.27629396  0.03983315    -0.52900
O298        O  0.25671911  0.34796630  0.10371904    -0.97500
O299        O  0.32508779  0.46840239  0.10533732    -0.54800
O300        O  0.24129356  0.40851245  0.14306314    -0.74100
C301        C  0.21213841  0.41124569  0.16039199     0.98200
O302        O  0.10283528  0.40917312  0.07938110    -0.62900
O303        O  0.27841783  0.55770591  0.96643955    -0.57700
O304        O  0.17414876  0.48056108  0.07950405    -0.94400
O305        O  0.22954393  0.52955885  0.04395031    -0.92900
O306        O  0.18905235  0.49091667  0.90662357    -0.93200
O307        O  0.11479851  0.43223846  0.93249452    -0.92000
C308        C  0.19809700  0.51758585  0.06804697     1.17100
H309        H  0.26003466  0.48499652  0.91904342     0.33000
H310        H  0.11971568  0.36701899  0.99203858     0.43900
H311        H  0.24846950  0.47257559  0.09730181     0.37400
H312        H  0.25968591  0.35795743  0.00730135     0.33900
H313        H  0.12831506  0.35503786  0.88269478     0.25700
H314        H  0.15357739  0.25415014  0.01927819     0.31600
H315        H  0.22765146  0.33277147  0.11270440     0.37500
H316        H  0.17767537  0.48488476  0.87725172     0.32000
H317        H  0.25107396  0.55444984  0.96138579     0.30800
H318        H  0.31731054  0.57169842  0.05778237     0.32500
H319        H  0.31362179  0.47701844  0.12879765     0.31500
H320        H  0.10734243  0.43189208  0.96286565     0.35500
H321        H  0.10570690  0.42090100  0.10828766     0.28200
H322        H  0.33948366  0.42662893  0.89442420     0.32500
H323        H  0.33525505  0.40449181  0.09928729     0.35300
H324        H  0.29245821  0.58151709  0.98576189     0.27900
H325        H  0.10012343  0.42809795  0.05978606     0.40800
H326        H  0.12040318  0.26564706  0.94650880     0.30800
H327        H  0.09849036  0.35328002  0.91823030     0.38500
H328        H  0.33478392  0.49060413  0.08407139     0.30300
H329        H  0.18619299  0.28305251  0.05294411     0.30400
H330        H  0.35324777  0.42985740  0.94247565     0.30600
Zr331      Zr  0.26795747  0.41363260  0.44274874     2.17500
O332        O  0.33262309  0.41749471  0.42484497    -0.51700
O333        O  0.24726976  0.41114290  0.36797057    -0.74900
O334        O  0.26047031  0.34793387  0.42612934    -0.81700
O335        O  0.32441223  0.52777261  0.46230684    -0.83500
O336        O  0.20979298  0.29938499  0.46731412    -0.79100
O337        O  0.32867076  0.47850473  0.42531992    -0.90700
O338        O  0.18831981  0.41256577  0.36579799    -0.76700
O339        O  0.19544927  0.37025475  0.44028516    -0.86200
O340        O  0.24075150  0.45782950  0.44067644    -0.85900
O341        O  0.25079563  0.37429461  0.50759126    -0.72600
O342        O  0.29183027  0.45404525  0.50676227    -0.84700
Zr343      Zr  0.17202577  0.41448803  0.56703648     2.26400
Zr344      Zr  0.17753105  0.33155531  0.50520137     2.06300
Zr345      Zr  0.26278556  0.49689805  0.50512297     2.10000
Zr346      Zr  0.16852695  0.41475396  0.43862008     1.78800
O347        O  0.31716192  0.54326310  0.55330283    -0.93600
O348        O  0.10842048  0.35578617  0.40825924    -0.41400
O349        O  0.19001564  0.45440667  0.50278587    -0.78000
O350        O  0.14838178  0.37477383  0.50226052    -0.96700
O351        O  0.19991355  0.37080668  0.56991514    -0.90000
O352        O  0.24443200  0.45828841  0.56976273    -0.92800
C353        C  0.21804154  0.41161341  0.34740980     1.00900
C354        C  0.34218442  0.51567289  0.43629415     1.13900
C355        C  0.23901645  0.31141861  0.44010082     1.04600
O356        O  0.12631872  0.27997499  0.45790454    -0.95000
O357        O  0.11175127  0.29897487  0.54165071    -0.90700
O358        O  0.10981034  0.34900928  0.57934415    -0.83900
C359        C  0.09397654  0.31194952  0.56671201     1.11300
O360        O  0.33601883  0.41362999  0.56196973    -0.97000
Zr361      Zr  0.27253062  0.41472596  0.57115639     1.88900
O362        O  0.19195517  0.41436622  0.64157954    -0.73600
O363        O  0.17639139  0.28146252  0.55442347    -0.52900
O364        O  0.26975067  0.35562598  0.60468679    -0.97500
O365        O  0.33039870  0.47478580  0.60344102    -0.54800
O366        O  0.25215797  0.41486323  0.64414058    -0.74100
C367        C  0.22180482  0.41496770  0.66197130     0.98200
O368        O  0.11605945  0.42172581  0.59561071    -0.62900
O369        O  0.26444408  0.55253958  0.46503992    -0.57700
O370        O  0.17430856  0.47912028  0.57678085    -0.94400
O371        O  0.22863228  0.52829881  0.53989379    -0.92900
O372        O  0.17468934  0.47308522  0.40000302    -0.93200
O373        O  0.10741276  0.42011386  0.44686217    -0.92000
C374        C  0.19693482  0.51589826  0.56367671     1.17100
H375        H  0.25023467  0.47518813  0.41585452     0.33000
H376        H  0.11885082  0.35922704  0.50081635     0.43900
H377        H  0.25240237  0.47603235  0.59436835     0.37400
H378        H  0.26408336  0.35835079  0.50841104     0.33900
H379        H  0.10020274  0.36675393  0.38394186     0.25700
H380        H  0.15768466  0.25484361  0.54085802     0.31600
H381        H  0.24313082  0.34164130  0.61979303     0.37500
H382        H  0.18495737  0.49517551  0.42149770     0.32000
H383        H  0.29285790  0.57565851  0.46794943     0.30800
H384        H  0.31502385  0.56810876  0.55370949     0.32500
H385        H  0.33871815  0.46430574  0.62810289     0.31500
H386        H  0.11403929  0.43970822  0.47059096     0.35500
H387        H  0.09313603  0.40752311  0.57504370     0.28200
H388        H  0.32830064  0.40383348  0.39679188     0.32500
H389        H  0.34525753  0.41172727  0.59107112     0.35300
H390        H  0.26188724  0.54433787  0.43466489     0.27900
H391        H  0.10685665  0.40513296  0.62196735     0.40800
H392        H  0.13979243  0.28520160  0.42964099     0.30800
H393        H  0.11917418  0.33960694  0.39468365     0.38500
H394        H  0.31857883  0.49013903  0.61668932     0.30300
H395        H  0.20392138  0.28454065  0.55210876     0.30400
H396        H  0.33568989  0.39956287  0.44558204     0.30600
Zr397      Zr  0.42444790  0.25523839  0.38890930     2.17500
O398        O  0.43006783  0.31743061  0.41787774    -0.51700
O399        O  0.42537437  0.23743686  0.46415346    -0.74900
O400        O  0.35854871  0.25009347  0.40295384    -0.81700
O401        O  0.53734441  0.31332442  0.35344580    -0.83500
O402        O  0.30596031  0.19275890  0.37348660    -0.79100
O403        O  0.49044148  0.31896966  0.39346104    -0.90700
O404        O  0.42959938  0.18014002  0.46723492    -0.76700
O405        O  0.38141126  0.18340987  0.39492830    -0.86200
O406        O  0.46943791  0.22858884  0.38954199    -0.85900
O407        O  0.38047316  0.23503678  0.32683499    -0.72600
O408        O  0.46054324  0.27462224  0.32204052    -0.84700
Zr409      Zr  0.41672815  0.15319288  0.26598352     2.26400
Zr410      Zr  0.33801050  0.16247347  0.33272782     2.06300
Zr411      Zr  0.50385579  0.24595150  0.32189402     2.10000
Zr412      Zr  0.42647730  0.15690368  0.39472637     1.78800
O413        O  0.54778777  0.29094099  0.26565179    -0.93600
O414        O  0.37053780  0.09962230  0.43207414    -0.41400
O415        O  0.46101560  0.17387760  0.32754034    -0.78000
O416        O  0.38200287  0.13413067  0.33401180    -0.96700
O417        O  0.37252632  0.18070163  0.26505669    -0.90000
O418        O  0.46064937  0.22498933  0.26003939    -0.92800
C419        C  0.42788324  0.20956596  0.48479788     1.00900
C420        C  0.52674576  0.33330077  0.37805005     1.13900
C421        C  0.32037355  0.22573172  0.39514579     1.04600
O422        O  0.28492439  0.11420792  0.38061482    -0.95000
O423        O  0.30274076  0.09479273  0.30146950    -0.90700
O424        O  0.35057491  0.08955430  0.26239408    -0.83900
C425        C  0.31433258  0.07498025  0.27783971     1.11300
O426        O  0.42170887  0.31861411  0.27109954    -0.97000
Zr427      Zr  0.41660529  0.25271246  0.26066017     1.88900
O428        O  0.41492814  0.17193818  0.19117664    -0.73600
O429        O  0.28904677  0.16522200  0.28416210    -0.52900
O430        O  0.35209315  0.24602287  0.23691039    -0.97500
O431        O  0.47099030  0.30756620  0.21903591    -0.54800
O432        O  0.41076601  0.22917135  0.18793209    -0.74100
C433        C  0.41203914  0.19951925  0.17035617     0.98200
O434        O  0.42048991  0.09998332  0.22623930    -0.62900
O435        O  0.56244405  0.25426659  0.36311113    -0.57700
O436        O  0.47940673  0.15035247  0.25879325    -0.94400
O437        O  0.53149260  0.20669902  0.29046144    -0.92900
O438        O  0.49196847  0.16663684  0.41948827    -0.93200
O439        O  0.42648533  0.09301894  0.39092781    -0.92000
C440        C  0.51714170  0.17313452  0.26964800     1.17100
H441        H  0.48873355  0.23960586  0.41297115     0.33000
H442        H  0.36656874  0.10513395  0.33787148     0.43900
H443        H  0.47684088  0.23196297  0.23427496     0.37400
H444        H  0.36420751  0.24799795  0.32591473     0.33900
H445        H  0.38242343  0.09796290  0.45970211     0.25700
H446        H  0.26190191  0.14388999  0.29472254     0.31600
H447        H  0.35952002  0.26619350  0.21372041     0.37500
H448        H  0.48494749  0.14559347  0.44166119     0.32000
H449        H  0.58676106  0.27413896  0.34667538     0.30800
H450        H  0.57316864  0.28954096  0.26757142     0.32500
H451        H  0.48344367  0.29464227  0.20213117     0.31500
H452        H  0.43022964  0.08959827  0.36020173     0.35500
H453        H  0.40784738  0.07552380  0.24470496     0.28200
H454        H  0.41314137  0.30945082  0.44410147     0.32500
H455        H  0.41637012  0.32666897  0.24282097     0.35300
H456        H  0.56314197  0.26900609  0.38946048     0.27900
H457        H  0.40138716  0.09309968  0.20181458     0.40800
H458        H  0.29641464  0.12302790  0.40970626     0.30800
H459        H  0.35139090  0.10912603  0.43976468     0.38500
H460        H  0.49230163  0.32447335  0.24033195     0.30300
H461        H  0.29015508  0.19116083  0.29092378     0.30400
H462        H  0.41565448  0.32557780  0.39722241     0.30600
Zr463      Zr  0.41878359  0.24913451  0.89070529     2.17500
O464        O  0.42322934  0.30976232  0.92275262    -0.51700
O465        O  0.41645214  0.22698107  0.96485652    -0.74900
O466        O  0.35287054  0.24503556  0.90058460    -0.81700
O467        O  0.53268322  0.30853771  0.86180438    -0.83500
O468        O  0.30228116  0.19321471  0.86235183    -0.79100
O469        O  0.48478087  0.31142798  0.90290394    -0.90700
O470        O  0.41954134  0.16904329  0.96629411    -0.76700
O471        O  0.37455914  0.17712841  0.89182692    -0.86200
O472        O  0.46238712  0.22105588  0.89307968    -0.85900
O473        O  0.37986097  0.23364002  0.82512706    -0.72600
O474        O  0.45927375  0.27242180  0.82671348    -0.84700
Zr475      Zr  0.41803308  0.15365351  0.76410339     2.26400
Zr476      Zr  0.33571851  0.16103841  0.82659660     2.06300
Zr477      Zr  0.50129674  0.24240917  0.82858661     2.10000
Zr478      Zr  0.41862898  0.14927325  0.89268326     1.78800
O479        O  0.55705297  0.29246222  0.78443894    -0.93600
O480        O  0.36104088  0.09033644  0.92619322    -0.41400
O481        O  0.45829732  0.16999335  0.82844511    -0.78000
O482        O  0.37860111  0.13151231  0.82910678    -0.96700
O483        O  0.37518607  0.18270586  0.76209419    -0.90000
O484        O  0.46304565  0.22553358  0.76330459    -0.92800
C485        C  0.41807263  0.19825329  0.98477691     1.00900
C486        C  0.52145146  0.32651535  0.88842816     1.13900
C487        C  0.31562990  0.22409709  0.88735596     1.04600
O488        O  0.28220687  0.11312014  0.87431795    -0.95000
O489        O  0.30251469  0.09487088  0.79179784    -0.90700
O490        O  0.35152531  0.09196085  0.75230620    -0.83900
C491        C  0.31471253  0.07656448  0.76656848     1.11300
O492        O  0.42264489  0.31913915  0.77219911    -0.97000
Zr493      Zr  0.42041525  0.25455785  0.76170990     1.88900
O494        O  0.41841625  0.17354437  0.68937354    -0.73600
O495        O  0.28895981  0.15982947  0.77238839    -0.52900
O496        O  0.36156913  0.25377848  0.72890741    -0.97500
O497        O  0.48206789  0.31122190  0.73074296    -0.54800
O498        O  0.41872921  0.23338877  0.68825890    -0.74100
C499        C  0.41840411  0.20322637  0.66970638     0.98200
O500        O  0.41339204  0.09049331  0.73993525    -0.62900
O501        O  0.54822964  0.23926444  0.87992330    -0.57700
O502        O  0.48465887  0.15970675  0.75027250    -0.94400
O503        O  0.53323672  0.21098105  0.79099282    -0.92900
O504        O  0.48136752  0.15376369  0.91912931    -0.93200
O505        O  0.41437205  0.08372937  0.88333891    -0.92000
C506        C  0.52157889  0.18192978  0.76404109     1.17100
H507        H  0.47997452  0.23037070  0.91795891     0.33000
H508        H  0.36267889  0.10222277  0.83062217     0.43900
H509        H  0.48117314  0.23384078  0.73895472     0.37400
H510        H  0.36454650  0.24753746  0.82350327     0.33900
H511        H  0.37115552  0.08830082  0.95477111     0.25700
H512        H  0.26157531  0.14503284  0.78587003     0.31600
H513        H  0.37286149  0.27238801  0.70414407     0.37500
H514        H  0.47216809  0.13166136  0.94044917     0.32000
H515        H  0.57413380  0.24897203  0.86401204     0.30800
H516        H  0.58204105  0.30181924  0.80204921     0.32500
H517        H  0.49098243  0.29899854  0.70838102     0.31500
H518        H  0.42532614  0.08498411  0.85430651     0.35500
H519        H  0.42799718  0.09684374  0.71225528     0.28200
H520        H  0.40503482  0.30035134  0.94805156     0.32500
H521        H  0.42611582  0.33123694  0.74341038     0.35300
H522        H  0.55457046  0.26111213  0.90096215     0.27900
H523        H  0.43041692  0.08519279  0.76004073     0.40800
H524        H  0.28817607  0.09085012  0.87828932     0.30800
H525        H  0.34087612  0.09898354  0.93207828     0.38500
H526        H  0.50310442  0.31969912  0.75346790     0.30300
H527        H  0.29536745  0.18836536  0.77019008     0.30400
H528        H  0.41003862  0.31937269  0.90217686     0.30600
Zr529      Zr  0.74131482  0.15712283  0.21998428     2.17500
O530        O  0.67885239  0.10087169  0.25027232    -0.51700
O531        O  0.76312801  0.17984700  0.29368839    -0.74900
O532        O  0.74796147  0.09808780  0.23702118    -0.81700
O533        O  0.67561554  0.20155025  0.18190516    -0.83500
O534        O  0.80442298  0.10418855  0.20422511    -0.79100
O535        O  0.67703744  0.15689015  0.22905242    -0.90700
O536        O  0.81789450  0.24393805  0.29319098    -0.76700
O537        O  0.81408793  0.19029770  0.22410938    -0.86200
O538        O  0.76498021  0.22814588  0.21707415    -0.85900
O539        O  0.76083569  0.13287870  0.15833079    -0.72600
O540        O  0.71792125  0.16802008  0.15243744    -0.84700
Zr541      Zr  0.83701298  0.25002849  0.09193282     2.26400
Zr542      Zr  0.83427230  0.16687272  0.16262735     2.06300
Zr543      Zr  0.74277767  0.23932362  0.14928664     2.10000
Zr544      Zr  0.83774011  0.26131041  0.21975440     1.78800
O545        O  0.69469300  0.23526769  0.09490589    -0.93600
O546        O  0.89960028  0.26949445  0.25371246    -0.41400
O547        O  0.81578442  0.27329439  0.15268862    -0.78000
O548        O  0.85977871  0.23880809  0.15979056    -0.96700
O549        O  0.81285977  0.17890189  0.09441338    -0.90000
O550        O  0.76407576  0.21747043  0.08772494    -0.92800
C551        C  0.79060577  0.21234155  0.31262636     1.00900
C552        C  0.65923252  0.17412052  0.21087563     1.13900
C553        C  0.77238698  0.08504815  0.22771920     1.04600
O554        O  0.88507378  0.17073086  0.21329495    -0.95000
O555        O  0.90138631  0.20152848  0.12865323    -0.90700
O556        O  0.90174630  0.24991264  0.08567893    -0.83900
C557        C  0.91893005  0.23134860  0.10228528     1.11300
O558        O  0.67812130  0.08000181  0.09981984    -0.97000
Zr559      Zr  0.74002978  0.14638600  0.09115344     1.88900
O560        O  0.81592143  0.22778044  0.01788915    -0.73600
O561        O  0.83587589  0.11572789  0.11719631    -0.52900
O562        O  0.75427640  0.09358444  0.06839414    -0.97500
O563        O  0.67809585  0.13674075  0.05596679    -0.54800
O564        O  0.75930904  0.16479566  0.01701170    -0.74100
C565        C  0.78766400  0.19635717  0.99815052     0.98200
O566        O  0.89139789  0.30935818  0.05519349    -0.62900
O567        O  0.73229103  0.28760757  0.19064125    -0.57700
O568        O  0.83572664  0.31312500  0.08335601    -0.94400
O569        O  0.77889771  0.30593304  0.11649613    -0.92900
O570        O  0.82967384  0.31713588  0.24574957    -0.93200
O571        O  0.89895956  0.32783653  0.21032829    -0.92000
C572        C  0.81179326  0.32621277  0.09461624     1.17100
H573        H  0.75417821  0.23643676  0.24044305     0.33000
H574        H  0.88915201  0.25424313  0.16198700     0.43900
H575        H  0.75529167  0.22480226  0.06192455     0.37400
H576        H  0.74863734  0.10368242  0.15874160     0.33900
H577        H  0.89152412  0.25896128  0.28314036     0.25700
H578        H  0.85796628  0.11208302  0.12941963     0.31600
H579        H  0.73894435  0.08276931  0.04133738     0.37500
H580        H  0.81535072  0.32242654  0.22233049     0.32000
H581        H  0.70954204  0.28848544  0.17595746     0.30800
H582        H  0.69346923  0.26043975  0.09865187     0.32500
H583        H  0.68013843  0.12984311  0.02590405     0.31500
H584        H  0.90270238  0.33102447  0.17896914     0.35500
H585        H  0.91544952  0.32115192  0.07459078     0.28200
H586        H  0.68699999  0.09446778  0.27796564     0.32500
H587        H  0.67323899  0.06598188  0.07191475     0.35300
H588        H  0.72047246  0.27401703  0.21821987     0.27900
H589        H  0.89928200  0.29859101  0.03045799     0.40800
H590        H  0.87275656  0.16833849  0.24181840     0.30800
H591        H  0.90474907  0.24934572  0.23940160     0.38500
H592        H  0.68154548  0.16425788  0.05458123     0.30300
H593        H  0.81030250  0.08994352  0.12369657     0.30400
H594        H  0.67157473  0.07707248  0.23171294     0.30600
Zr595      Zr  0.74312229  0.15634032  0.71622294     2.17500
O596        O  0.68537413  0.09213712  0.74107538    -0.51700
O597        O  0.76070659  0.17545505  0.79138674    -0.74900
O598        O  0.74677629  0.09470921  0.72762115    -0.81700
O599        O  0.68538931  0.21123195  0.68651304    -0.83500
O600        O  0.80176196  0.09991584  0.69212493    -0.79100
O601        O  0.68081031  0.15971984  0.72720957    -0.90700
O602        O  0.81835828  0.23759210  0.79525652    -0.76700
O603        O  0.81554861  0.18599854  0.72109770    -0.86200
O604        O  0.77050343  0.22805398  0.71881021    -0.85900
O605        O  0.76251779  0.13619611  0.65159393    -0.72600
O606        O  0.72144409  0.17387246  0.65140669    -0.84700
Zr607      Zr  0.84436481  0.25565281  0.59393953     2.26400
Zr608      Zr  0.83534123  0.16593124  0.65704607     2.06300
Zr609      Zr  0.75170240  0.24623819  0.65300961     2.10000
Zr610      Zr  0.84264746  0.25775009  0.72289758     1.78800
O611        O  0.70338703  0.24604440  0.60122650    -0.93600
O612        O  0.89766009  0.25669249  0.76247036    -0.41400
O613        O  0.82458415  0.27710371  0.65738446    -0.78000
O614        O  0.86459465  0.23832290  0.66027938    -0.96700
O615        O  0.81535107  0.18363581  0.59117648    -0.90000
O616        O  0.77206454  0.22735499  0.58887846    -0.92800
C617        C  0.78840116  0.20615015  0.81249698     1.00900
C618        C  0.66648759  0.18161971  0.71269560     1.13900
C619        C  0.76955100  0.08054358  0.71524434     1.04600
O620        O  0.88302432  0.16564640  0.70923140    -0.95000
O621        O  0.90256569  0.19964951  0.62433247    -0.90700
O622        O  0.90718442  0.25251381  0.58584747    -0.83900
C623        C  0.92189110  0.23079680  0.60008145     1.11300
O624        O  0.67861211  0.09058504  0.58847587    -0.97000
Zr625      Zr  0.74285539  0.15563849  0.58752266     1.88900
O626        O  0.82417846  0.23896390  0.51864142    -0.73600
O627        O  0.84158041  0.11874588  0.60938799    -0.52900
O628        O  0.74419059  0.09797434  0.55570630    -0.97500
O629        O  0.68540502  0.16057792  0.55904757    -0.54800
O630        O  0.76509080  0.17798061  0.51546578    -0.74100
C631        C  0.79509059  0.20905790  0.49790533     0.98200
O632        O  0.90659737  0.30913440  0.56029715    -0.62900
O633        O  0.74679293  0.29590599  0.69796532    -0.57700
O634        O  0.84471379  0.32020584  0.58820008    -0.94400
O635        O  0.78763430  0.31271418  0.62084910    -0.92900
O636        O  0.83517752  0.31363612  0.74977770    -0.93200
O637        O  0.90814263  0.32097513  0.71644037    -0.92000
C638        C  0.82105697  0.33353843  0.60006067     1.17100
H639        H  0.75988208  0.23572994  0.74286281     0.33000
H640        H  0.89401195  0.25228348  0.66325193     0.43900
H641        H  0.76470418  0.23753109  0.56419715     0.37400
H642        H  0.74923810  0.10705083  0.64934564     0.33900
H643        H  0.90226973  0.27406092  0.78784847     0.25700
H644        H  0.85899830  0.11062204  0.62522668     0.31600
H645        H  0.77364431  0.10735394  0.55212306     0.37500
H646        H  0.85840839  0.32870826  0.76976133     0.32000
H647        H  0.72809158  0.30242142  0.68224236     0.30800
H648        H  0.70801382  0.27405135  0.60176682     0.32500
H649        H  0.69773617  0.18515592  0.54078925     0.31500
H650        H  0.90591799  0.33316191  0.68934222     0.35500
H651        H  0.89728354  0.31706206  0.53436081     0.28200
H652        H  0.67880962  0.09789290  0.76990169     0.32500
H653        H  0.66851636  0.08550902  0.55858369     0.35300
H654        H  0.73107875  0.28080488  0.72352502     0.27900
H655        H  0.91735335  0.33300669  0.57959022     0.40800
H656        H  0.90450008  0.19462361  0.71251258     0.30800
H657        H  0.88511152  0.22873567  0.77409788     0.38500
H658        H  0.67411619  0.16775761  0.58387278     0.30300
H659        H  0.81412290  0.09395882  0.60889317     0.30400
H660        H  0.66161667  0.08655819  0.72289928     0.30600
Zr661      Zr  0.74754188  0.57438988  0.93323698     2.17500
O662        O  0.68682440  0.57021555  0.90074833    -0.51700
O663        O  0.76970183  0.57111803  0.86042253    -0.74900
O664        O  0.75670952  0.64110745  0.91441349    -0.81700
O665        O  0.68340593  0.46305533  0.96878403    -0.83500
O666        O  0.81173668  0.69075663  0.95033822    -0.79100
O667        O  0.68333790  0.50931343  0.92309427    -0.90700
O668        O  0.82735751  0.56686058  0.86229455    -0.76700
O669        O  0.82050024  0.61350699  0.93073113    -0.86200
O670        O  0.77057454  0.52687088  0.93830444    -0.85900
O671        O  0.76693385  0.61835071  0.99511802    -0.72600
O672        O  0.72259905  0.54037912  0.00071137    -0.84700
Zr673      Zr  0.84104972  0.57656958  0.06486050     2.26400
Zr674      Zr  0.84052377  0.65720555  0.99212456     2.06300
Zr675      Zr  0.74758029  0.49429226  0.00629913     2.10000
Zr676      Zr  0.84335329  0.56576076  0.93674150     1.78800
O677        O  0.69875430  0.45451882  0.06208420    -0.93600
O678        O  0.90734890  0.61668873  0.90376096    -0.41400
O679        O  0.82038919  0.53260559  0.00384295    -0.78000
O680        O  0.86578159  0.61077114  0.99699818    -0.96700
O681        O  0.81743804  0.62367457  0.05984002    -0.90000
O682        O  0.76818493  0.53696388  0.06816622    -0.92800
C683        C  0.79896116  0.56881181  0.84220820     1.00900
C684        C  0.66680374  0.47348779  0.93964906     1.13900
C685        C  0.78080235  0.67850409  0.92515043     1.04600
O686        O  0.89296470  0.69987260  0.94061381    -0.95000
O687        O  0.90567741  0.69004100  0.02975490    -0.90700
O688        O  0.90458364  0.64168734  0.07335880    -0.83900
C689        C  0.92187757  0.67776456  0.05767830     1.11300
O690        O  0.68662811  0.59461405  0.05266801    -0.97000
Zr691      Zr  0.74458981  0.58407975  0.06229758     1.88900
O692        O  0.81926832  0.58001385  0.13816472    -0.73600
O693        O  0.84634262  0.71356479  0.03455948    -0.52900
O694        O  0.75880358  0.64930872  0.09146777    -0.97500
O695        O  0.68083076  0.52881361  0.09152498    -0.54800
O696        O  0.76147864  0.58403338  0.13719363    -0.74100
C697        C  0.79019140  0.58220215  0.15704005     0.98200
O698        O  0.89495605  0.57232437  0.10324808    -0.62900
O699        O  0.73570528  0.43195468  0.97139560    -0.57700
O700        O  0.83960488  0.51138151  0.07237719    -0.94400
O701        O  0.78322123  0.46325734  0.03719992    -0.92900
O702        O  0.82660433  0.49841305  0.91191468    -0.93200
O703        O  0.90100686  0.55530184  0.94882093    -0.92000
C704        C  0.81579425  0.47460363  0.05924574     1.17100
H705        H  0.75971317  0.50731941  0.91521656     0.33000
H706        H  0.89531843  0.62494885  0.99566397     0.43900
H707        H  0.75900978  0.52096947  0.09399721     0.37400
H708        H  0.75520248  0.63567409  0.99399350     0.33900
H709        H  0.90997937  0.60337557  0.87774012     0.25700
H710        H  0.86541804  0.73832200  0.01833228     0.31600
H711        H  0.78527990  0.66026332  0.10675942     0.37500
H712        H  0.84676140  0.50348030  0.88915824     0.32000
H713        H  0.71031672  0.40993357  0.98452502     0.30800
H714        H  0.71222326  0.44236461  0.07864050     0.32500
H715        H  0.68900847  0.51205652  0.10834163     0.31500
H716        H  0.90742213  0.56109757  0.97961899     0.35500
H717        H  0.91872400  0.58334925  0.08363752     0.28200
H718        H  0.69560552  0.58292243  0.87220718     0.32500
H719        H  0.67781246  0.59665481  0.08189508     0.35300
H720        H  0.72798892  0.43364106  0.94153186     0.27900
H721        H  0.90360269  0.59208726  0.12712030     0.40800
H722        H  0.90354440  0.72804532  0.95093718     0.30800
H723        H  0.90160892  0.63770109  0.89285150     0.38500
H724        H  0.66587120  0.51160749  0.06658290     0.30300
H725        H  0.81936238  0.71171252  0.03191440     0.30400
H726        H  0.68101154  0.58885687  0.91734556     0.30600
Zr727      Zr  0.74280142  0.58172664  0.44254905     2.17500
O728        O  0.67776349  0.57884199  0.42988197    -0.51700
O729        O  0.75803507  0.58445311  0.36578332    -0.74900
O730        O  0.75254178  0.64966065  0.43092802    -0.81700
O731        O  0.68419576  0.46741632  0.46673649    -0.83500
O732        O  0.80437667  0.69716513  0.47233008    -0.79100
O733        O  0.68155629  0.51594880  0.42662458    -0.90700
O734        O  0.81678936  0.58251363  0.35981748    -0.76700
O735        O  0.81509806  0.62572033  0.43868218    -0.86200
O736        O  0.77049766  0.53816310  0.43502774    -0.85900
O737        O  0.76244266  0.61895980  0.50900309    -0.72600
O738        O  0.72241518  0.53949168  0.50530011    -0.84700
Zr739      Zr  0.84425796  0.57746276  0.55926917     2.26400
Zr740      Zr  0.83566959  0.66201781  0.50530305     2.06300
Zr741      Zr  0.75174765  0.49717822  0.49812343     2.10000
Zr742      Zr  0.84250990  0.58215740  0.43074293     1.78800
O743        O  0.70632247  0.44540017  0.54876314    -0.93600
O744        O  0.89738906  0.64381398  0.39815835    -0.41400
O745        O  0.82430702  0.54012385  0.49314489    -0.78000
O746        O  0.86527041  0.61966596  0.49623764    -0.96700
O747        O  0.81598368  0.62041075  0.56801839    -0.90000
O748        O  0.77191530  0.53363566  0.56418936    -0.92800
C749        C  0.78630737  0.58377563  0.34355434     1.00900
C750        C  0.66627920  0.47927324  0.44057433     1.13900
C751        C  0.77471342  0.68602598  0.44577671     1.04600
O752        O  0.88381751  0.71523709  0.45763484    -0.95000
O753        O  0.90237332  0.69435134  0.53994016    -0.90700
O754        O  0.90516565  0.64320596  0.57435369    -0.83900
C755        C  0.92045125  0.68060998  0.56347613     1.11300
O756        O  0.67521817  0.56843560  0.56688952    -0.97000
Zr757      Zr  0.74354541  0.57670853  0.57101381     1.88900
O758        O  0.82742895  0.57423706  0.63517584    -0.73600
O759        O  0.83786802  0.70777320  0.56099057    -0.52900
O760        O  0.74394564  0.63604031  0.60092422    -0.97500
O761        O  0.69082672  0.51747719  0.60933505    -0.54800
O762        O  0.77184619  0.58174659  0.64156652    -0.74100
C763        C  0.80123323  0.57840742  0.65742131     0.98200
O764        O  0.90380932  0.57306124  0.58154787    -0.62900
O765        O  0.74578268  0.44610908  0.44704228    -0.57700
O766        O  0.84231049  0.51257212  0.56510960    -0.94400
O767        O  0.78818931  0.46523484  0.52622545    -0.92900
O768        O  0.83993995  0.52610831  0.39068603    -0.93200
O769        O  0.90614973  0.58084072  0.43296706    -0.92000
C770        C  0.81974843  0.47645260  0.55001826     1.17100
H771        H  0.75984734  0.52136391  0.40978222     0.33000
H772        H  0.89475240  0.63566196  0.49419083     0.43900
H773        H  0.76481409  0.51521918  0.58807436     0.37400
H774        H  0.74919085  0.63479363  0.51175313     0.33900
H775        H  0.90142521  0.63498476  0.36971770     0.25700
H776        H  0.85305680  0.73524531  0.54809938     0.31600
H777        H  0.72488601  0.62571768  0.62545181     0.37500
H778        H  0.82372129  0.50186987  0.40884909     0.32000
H779        H  0.72551645  0.41970311  0.45983244     0.30800
H780        H  0.69692488  0.41919182  0.53385116     0.32500
H781        H  0.70575258  0.50866689  0.62844256     0.31500
H782        H  0.90720718  0.57157105  0.46226198     0.35500
H783        H  0.92648300  0.59123645  0.56223106     0.28200
H784        H  0.68117837  0.59326508  0.40251761     0.32500
H785        H  0.66632434  0.56820193  0.59669002     0.35300
H786        H  0.73163876  0.44891454  0.42176339     0.27900
H787        H  0.91172137  0.58614554  0.61005984     0.40800
H788        H  0.90715281  0.71048507  0.45519763     0.30800
H789        H  0.88496839  0.66070781  0.39182978     0.38500
H790        H  0.67818010  0.49579032  0.58739577     0.30300
H791        H  0.80929400  0.70184163  0.56348666     0.30400
H792        H  0.67624205  0.59664361  0.45198905     0.30600
C793        C  0.79796586  0.60198231  0.77503806    -0.06200
C794        C  0.80126490  0.57077529  0.79483320    -0.00200
C795        C  0.80791270  0.54376948  0.76928167    -0.08800
C796        C  0.80884497  0.54793339  0.72442869    -0.06200
C797        C  0.80415103  0.57842398  0.70471006    -0.00300
C798        C  0.80042158  0.60702518  0.73047033    -0.08700
C799        C  0.79961227  0.64322806  0.71138354     0.61700
H800        H  0.79389038  0.62292422  0.79497774     0.12400
H801        H  0.81257243  0.52690580  0.70427535     0.12400
C802        C  0.81342036  0.51038693  0.78891895     0.61900
F803        F  0.80776639  0.67274009  0.74188657    -0.23300
F804        F  0.76129697  0.63051749  0.69439065    -0.20600
F805        F  0.82895550  0.66104688  0.67972071    -0.20300
F806        F  0.78185516  0.48759104  0.81713400    -0.20300
F807        F  0.85048781  0.52764242  0.81034051    -0.20700
F808        F  0.81348961  0.48419999  0.75823490    -0.23300
C809        C  0.78080239  0.60985447  0.22594688    -0.06200
C810        C  0.78902265  0.58208961  0.20491394    -0.00200
C811        C  0.79351190  0.55348547  0.22983168    -0.08800
C812        C  0.79116681  0.55461333  0.27468334    -0.06200
C813        C  0.78396203  0.58291218  0.29582933    -0.00300
C814        C  0.77841884  0.61097518  0.27106289    -0.08700
C815        C  0.77134647  0.64277402  0.29203116     0.61700
H816        H  0.77669347  0.63110302  0.20661047     0.12400
H817        H  0.79526737  0.53327026  0.29388495     0.12400
C818        C  0.79948424  0.52097706  0.20916476     0.61900
F819        F  0.77142960  0.66979991  0.26241332    -0.23300
F820        F  0.80204034  0.66483914  0.32153903    -0.20600
F821        F  0.73379389  0.62394841  0.31241023    -0.20300
F822        F  0.83775787  0.53886696  0.19036122    -0.20300
F823        F  0.76930172  0.50059463  0.17864049    -0.20700
F824        F  0.79700282  0.49257353  0.23845409    -0.23300
C825        C  0.82750433  0.43553996  0.60592435    -0.06200
C826        C  0.82925768  0.44477650  0.56245926    -0.00200
C827        C  0.83677173  0.42169434  0.53212419    -0.08800
C828        C  0.83791376  0.38712202  0.54614819    -0.06200
C829        C  0.83205394  0.37561213  0.58933245    -0.00300
C830        C  0.82949421  0.40167730  0.62010769    -0.08700
C831        C  0.82813737  0.39509782  0.66808974     0.61700
H832        H  0.82300091  0.45415286  0.62904520     0.12400
H833        H  0.84038690  0.36727757  0.52304187     0.12400
C834        C  0.84278960  0.43312712  0.48518303     0.61900
F835        F  0.85770559  0.43055912  0.68757868    -0.23300
F836        F  0.83572854  0.36452431  0.67965117    -0.20600
F837        F  0.79007255  0.38575048  0.68337423    -0.20300
F838        F  0.87068854  0.47428617  0.48086646    -0.20300
F839        F  0.80588299  0.42440203  0.46709557    -0.20700
F840        F  0.85763249  0.41192996  0.46282772    -0.23300
C841        C  0.83429171  0.39670806  0.11534822    -0.06200
C842        C  0.82259428  0.36774470  0.08263971    -0.00200
C843        C  0.81526929  0.37693019  0.04108397    -0.08800
C844        C  0.81796009  0.41458033  0.03404358    -0.06200
C845        C  0.82578564  0.44222338  0.06763280    -0.00300
C846        C  0.83568965  0.43391433  0.10868025    -0.08700
C847        C  0.84359623  0.46202306  0.14608958     0.61700
H848        H  0.83963639  0.38867228  0.14694596     0.12400
H849        H  0.81103272  0.42152703  0.00263188     0.12400
C850        C  0.80171910  0.34583048  0.00528611     0.61900
F851        F  0.85055938  0.44730919  0.18368794    -0.23300
F852        F  0.80964687  0.46591007  0.15178871    -0.20600
F853        F  0.87762672  0.49964716  0.13814101    -0.20300
F854        F  0.76518949  0.31139643  0.01625444    -0.20300
F855        F  0.83127214  0.33529224  0.99856671    -0.20700
F856        F  0.79570604  0.36071106  0.96728064    -0.23300
C857        C  0.78056785  0.16844757  0.87944384    -0.06200
C858        C  0.78673974  0.20428290  0.86001228    -0.00200
C859        C  0.79227380  0.23720696  0.88616360    -0.08800
C860        C  0.79249113  0.23321644  0.93098390    -0.06200
C861        C  0.78695514  0.19753209  0.95047972    -0.00300
C862        C  0.78082416  0.16444090  0.92419767    -0.08700
C863        C  0.77536093  0.12521375  0.94280929     0.61700
H864        H  0.77613694  0.14356575  0.85900665     0.12400
H865        H  0.79676885  0.25807669  0.95136148     0.12400
C866        C  0.79687464  0.27600414  0.86714133     0.61900
F867        F  0.77795648  0.10073897  0.91168314    -0.23300
F868        F  0.73722517  0.10356044  0.96167896    -0.20600
F869        F  0.80553110  0.13374960  0.97288539    -0.20300
F870        F  0.76553737  0.26652574  0.83824453    -0.20300
F871        F  0.83419079  0.29752628  0.84666476    -0.20700
F872        F  0.79533934  0.30113183  0.89816297    -0.23300
C873        C  0.80054219  0.24511637  0.42982455    -0.06200
C874        C  0.79546322  0.21015453  0.45046282    -0.00200
C875        C  0.78926711  0.17631440  0.42557092    -0.08800
C876        C  0.78747819  0.17834495  0.38083447    -0.06200
C877        C  0.79198473  0.21295450  0.36010368    -0.00300
C878        C  0.79872096  0.24713778  0.38489307    -0.08700
C879        C  0.80301394  0.28522754  0.36430373     0.61700
H880        H  0.80532782  0.27068477  0.44931219     0.12400
H881        H  0.78278681  0.15275203  0.36149226     0.12400
C882        C  0.78505893  0.13820988  0.44590838     0.61900
F883        F  0.80158683  0.31125614  0.39423447    -0.23300
F884        F  0.77143481  0.27476474  0.33542083    -0.20600
F885        F  0.84020499  0.30612835  0.34338454    -0.20300
F886        F  0.74725891  0.11648653  0.46546323    -0.20300
F887        F  0.81584900  0.14863402  0.47578640    -0.20700
F888        F  0.78794665  0.11303586  0.41597166    -0.23300
C889        C  0.57729248  0.16864896  0.78016283    -0.06200
C890        C  0.55373276  0.17402214  0.74893618    -0.00200
C891        C  0.56507387  0.17760177  0.70549080    -0.08800
C892        C  0.60065293  0.17665406  0.69489291    -0.06200
C893        C  0.62545798  0.17321793  0.72630404    -0.00300
C894        C  0.61317779  0.16816889  0.76973562    -0.08700
C895        C  0.63811661  0.16359947  0.80518219     0.61700
H896        H  0.56783885  0.16605623  0.81323291     0.12400
H897        H  0.61050777  0.18047740  0.66188269     0.12400
C898        C  0.54143098  0.18524968  0.67098764     0.61900
F899        F  0.62330783  0.16465596  0.84532165    -0.23300
F900        F  0.67856623  0.19475447  0.80338299    -0.20600
F901        F  0.63623537  0.12660577  0.80077320    -0.20300
F902        F  0.54026613  0.22011857  0.68056826    -0.20300
F903        F  0.50184613  0.15254857  0.66847683    -0.20700
F904        F  0.55931395  0.19044222  0.63117446    -0.23300
C905        C  0.57971173  0.39441757  0.87097821    -0.06200
C906        C  0.55383833  0.36744667  0.90258498    -0.00200
C907        C  0.56323967  0.37779437  0.94623964    -0.08800
C908        C  0.59877771  0.41481154  0.95660244    -0.06200
C909        C  0.62586991  0.44080755  0.92504415    -0.00300
C910        C  0.61602053  0.43077707  0.88136333    -0.08700
C911        C  0.64477812  0.45674890  0.84593359     0.61700
H912        H  0.57208696  0.38568354  0.83778661     0.12400
H913        H  0.60691629  0.42287697  0.98984550     0.12400
C914        C  0.53769132  0.34876954  0.98171259     0.61900
F915        F  0.63037437  0.43988796  0.80594072    -0.23300
F916        F  0.68287044  0.46058689  0.85162721    -0.20600
F917        F  0.64876602  0.49486227  0.84647769    -0.20300
F918        F  0.53475923  0.31137727  0.97577033    -0.20300
F919        F  0.49886952  0.34376064  0.98151358    -0.20700
F920        F  0.55480218  0.36314716  0.02165619    -0.23300
C921        C  0.55090447  0.15613864  0.21291804    -0.06200
C922        C  0.54674070  0.16083460  0.25667939    -0.00200
C923        C  0.57539812  0.16076928  0.28580931    -0.08800
C924        C  0.61102033  0.16288532  0.26962822    -0.06200
C925        C  0.61764773  0.16312009  0.22549138    -0.00300
C926        C  0.58570226  0.15643943  0.19674847    -0.08700
C927        C  0.58869719  0.15193808  0.14896503     0.61700
H928        H  0.52821702  0.15523053  0.19099748     0.12400
H929        H  0.63463637  0.16615588  0.29172254     0.12400
C930        C  0.57009066  0.15938549  0.33392653     0.61900
F931        F  0.55007408  0.13060086  0.13057838    -0.23300
F932        F  0.60868852  0.13076793  0.14028942    -0.20600
F933        F  0.60975757  0.19003565  0.13041817    -0.20300
F934        F  0.53089433  0.14937087  0.34583684    -0.20300
F935        F  0.59783236  0.19687026  0.35116310    -0.20700
F936        F  0.57751734  0.13019380  0.35094443    -0.23300
C937        C  0.55969053  0.38655841  0.43382494    -0.06200
C938        C  0.55914353  0.37500102  0.39107335    -0.00200
C939        C  0.59071281  0.40246689  0.36305341    -0.08800
C940        C  0.62390681  0.43819334  0.38011542    -0.06200
C941        C  0.62632343  0.44731167  0.42369078    -0.00300
C942        C  0.59281530  0.42248289  0.45065112    -0.08700
C943        C  0.59216321  0.43355778  0.49708500     0.61700
H944        H  0.53507067  0.36604793  0.45478023     0.12400
H945        H  0.64964291  0.45800540  0.35994011     0.12400
C946        C  0.59035588  0.39427336  0.31554561     0.61900
F947        F  0.55324250  0.41109533  0.51432900    -0.23300
F948        F  0.60415265  0.47432562  0.50037994    -0.20600
F949        F  0.61852826  0.42610713  0.52078798    -0.20300
F950        F  0.55192092  0.38156766  0.29859979    -0.20300
F951        F  0.60068419  0.36473152  0.30896367    -0.20700
F952        F  0.61832053  0.42888450  0.29360966    -0.23300
C953        C  0.39094719  0.20282573  0.55221386    -0.06200
C954        C  0.42716797  0.21011219  0.53217726    -0.00200
C955        C  0.46022708  0.21420971  0.55744331    -0.08800
C956        C  0.45609779  0.21166376  0.60230300    -0.06200
C957        C  0.41967815  0.20386498  0.62230327    -0.00300
C958        C  0.38624703  0.19867479  0.59695056    -0.08700
C959        C  0.34515075  0.18665532  0.61690149     0.61700
H960        H  0.36570898  0.19879488  0.53227588     0.12400
H961        H  0.48125512  0.21546715  0.62221801     0.12400
C962        C  0.49955976  0.22100663  0.53706026     0.61900
F963        F  0.31609443  0.18091056  0.58641751    -0.23300
F964        F  0.34919621  0.21667110  0.64460445    -0.20600
F965        F  0.33093614  0.15061630  0.63916267    -0.20300
F966        F  0.51505271  0.25414685  0.50987475    -0.20300
F967        F  0.49170759  0.18678042  0.51415137    -0.20700
F968        F  0.52928926  0.22830832  0.56729801    -0.23300
C969        C  0.44207227  0.19289737  0.10264382    -0.06200
C970        C  0.41192526  0.19807222  0.12281308    -0.00200
C971        C  0.38359156  0.20295974  0.09734457    -0.08800
C972        C  0.38723594  0.20357840  0.05249055    -0.06200
C973        C  0.41736373  0.19839446  0.03231990    -0.00300
C974        C  0.44556883  0.19325159  0.05777589    -0.08700
C975        C  0.48018801  0.18962090  0.03796924     0.61700
H976        H  0.46343476  0.18918364  0.12251751     0.12400
H977        H  0.36600269  0.20750630  0.03262778     0.12400
C978        C  0.34847080  0.20565078  0.11717987     0.61900
F979        F  0.50825228  0.19261689  0.06837014    -0.23300
F980        F  0.50095108  0.22045757  0.00853147    -0.20600
F981        F  0.46445937  0.15231292  0.01793178    -0.20300
F982        F  0.36339094  0.24249799  0.13795610    -0.20300
F983        F  0.32789326  0.17416371  0.14598049    -0.20700
F984        F  0.32048659  0.20271738  0.08672644    -0.23300
C985        C  0.02281636  0.26605804  0.54337857    -0.06200
C986        C  0.05052322  0.28387224  0.57756451    -0.00200
C987        C  0.03546897  0.27859876  0.61989626    -0.08800
C988        C  0.99279223  0.25915283  0.62605251    -0.06200
C989        C  0.96536976  0.24498516  0.59136277    -0.00300
C990        C  0.98018119  0.24637686  0.54968750    -0.08700
C991        C  0.95090337  0.22657928  0.51246246     0.61700
H992        H  0.03485861  0.26962927  0.51127787     0.12400
H993        H  0.98054949  0.25640877  0.65794723     0.12400
C994        C  0.06419519  0.29281163  0.65823585     0.61900
F995        F  0.97129907  0.22685704  0.47566753    -0.23300
F996        F  0.93010446  0.24700380  0.50417660    -0.20600
F997        F  0.92291813  0.18648035  0.52242938    -0.20300
F998        F  0.08742356  0.33479002  0.65920178    -0.20300
F999        F  0.09002510  0.27706532  0.65579188    -0.20700
F1000       F  0.04290305  0.28001506  0.69638032    -0.23300
C1001       C  0.27499107  0.25144416  0.37534907    -0.06200
C1002       C  0.29197660  0.23933865  0.40801569    -0.00200
C1003       C  0.28629412  0.24592183  0.45121787    -0.08800
C1004       C  0.26593253  0.26726808  0.46034686    -0.06200
C1005       C  0.25212786  0.28256998  0.42756573    -0.00300
C1006       C  0.25542451  0.27359019  0.38438846    -0.08700
C1007       C  0.23937718  0.28813440  0.34810476     0.61700
H1008       H  0.27975471  0.24592881  0.34245510     0.12400
H1009       H  0.26275468  0.27425181  0.49319713     0.12400
C1010       C  0.30169078  0.23042120  0.48722497     0.61900
F1011       F  0.23958746  0.27037258  0.30954573    -0.23300
F1012       F  0.26364360  0.32981071  0.34381044    -0.20600
F1013       F  0.19950382  0.27828207  0.35646291    -0.20300
F1014       F  0.34396280  0.24957550  0.48625281    -0.20300
F1015       F  0.28536690  0.18890306  0.48264605    -0.20700
F1016       F  0.29038804  0.23753907  0.52689528    -0.23300
C1017       C  0.22131518  0.44670559  0.77723385    -0.06200
C1018       C  0.22857238  0.41899715  0.79956380    -0.00200
C1019       C  0.23237192  0.38897773  0.77656415    -0.08800
C1020       C  0.22928203  0.38834350  0.73161011    -0.06200
C1021       C  0.22194074  0.41611303  0.70934436    -0.00300
C1022       C  0.21817472  0.44604151  0.73244223    -0.08700
C1023       C  0.21220899  0.47802298  0.71000384     0.61700
H1024       H  0.21813574  0.46914976  0.79543186     0.12400
H1025       H  0.23249456  0.36596422  0.71332561     0.12400
C1026       C  0.23849181  0.35712934  0.79920845     0.61900
F1027       F  0.21389510  0.50679326  0.73830304    -0.23300
F1028       F  0.17434288  0.45968157  0.69010266    -0.20600
F1029       F  0.24269528  0.49812958  0.67991058    -0.20300
F1030       F  0.20816558  0.33707459  0.82949214    -0.20300
F1031       F  0.27641164  0.37565778  0.81902301    -0.20700
F1032       F  0.23682007  0.32826491  0.77104465    -0.23300
C1033       C  0.24974100  0.42535480  0.22917444    -0.06200
C1034       C  0.21193455  0.41183864  0.20829765    -0.00200
C1035       C  0.17613501  0.39777402  0.23352472    -0.08800
C1036       C  0.17986548  0.39810388  0.27845687    -0.06200
C1037       C  0.21768968  0.41114157  0.29936494    -0.00300
C1038       C  0.25341543  0.42480721  0.27392448    -0.08700
C1039       C  0.29551212  0.43879426  0.29309178     0.61700
H1040       H  0.27698205  0.43627989  0.20981099     0.12400
H1041       H  0.15265769  0.38767871  0.29776707     0.12400
C1042       C  0.13395586  0.38159703  0.21363538     0.61900
F1043       F  0.32606232  0.45374331  0.26245977    -0.23300
F1044       F  0.29549218  0.40632167  0.31274832    -0.20600
F1045       F  0.30547248  0.46951407  0.32250404    -0.20300
F1046       F  0.12640857  0.35155047  0.18407589    -0.20300
F1047       F  0.13195708  0.41297683  0.19379020    -0.20700
F1048       F  0.10306157  0.36475888  0.24384934    -0.23300
C1049       C  0.97343012  0.24469986  0.04979530    -0.06200
C1050       C  0.96269703  0.24736823  0.09206021    -0.00200
C1051       C  0.99403368  0.26826900  0.12296709    -0.08800
C1052       C  0.03512867  0.28714955  0.10998188    -0.06200
C1053       C  0.04607565  0.28599247  0.06746056    -0.00300
C1054       C  0.01479082  0.26300822  0.03694395    -0.08700
C1055       C  0.02468622  0.25845030  0.99095649     0.61700
H1056       H  0.94898197  0.22852051  0.02678424     0.12400
H1057       H  0.05935693  0.30451316  0.13284590     0.12400
C1058       C  0.98444814  0.27285589  0.16901742     0.61900
F1059       F  0.04665143  0.23845424  0.99012935    -0.23300
F1060       F  0.04746839  0.29630583  0.97218286    -0.20600
F1061       F  0.98962974  0.23599794  0.96661943    -0.20300
F1062       F  0.96157473  0.23495255  0.18750079    -0.20300
F1063       F  0.96285785  0.29315962  0.17028131    -0.20700
F1064       F  0.01961708  0.29484751  0.19335519    -0.23300
C1065       C  0.24672696  0.27015170  0.88614720    -0.06200
C1066       C  0.25362905  0.28595380  0.92769805    -0.00200
C1067       C  0.27589839  0.27635903  0.95714934    -0.08800
C1068       C  0.29193513  0.25221697  0.94348248    -0.06200
C1069       C  0.28787643  0.23880650  0.90106975    -0.00300
C1070       C  0.26391363  0.24688161  0.87195205    -0.08700
C1071       C  0.25895059  0.23380687  0.82548658     0.61700
H1072       H  0.22956456  0.27802883  0.86432951     0.12400
H1073       H  0.31040149  0.24594550  0.96520274     0.12400
C1074       C  0.28547604  0.29417931  0.00190554     0.61900
F1075       F  0.23489537  0.24526492  0.80292529    -0.23300
F1076       F  0.24027157  0.19192928  0.82296897    -0.20600
F1077       F  0.29699420  0.25162994  0.80616133    -0.20300
F1078       F  0.24960785  0.28471477  0.02278872    -0.20300
F1079       F  0.31041834  0.33598792  0.99938239    -0.20700
F1080       F  0.30559933  0.27921823  0.02613465    -0.23300
C1081       C  0.71055545  0.96562648  0.71261381    -0.06200
C1082       C  0.72210242  0.95601162  0.75163879    -0.00200
C1083       C  0.75375087  0.98788339  0.77633069    -0.08800
C1084       C  0.76998642  0.02849361  0.76254998    -0.06200
C1085       C  0.75557028  0.03772251  0.72543927    -0.00300
C1086       C  0.72647524  0.00593335  0.69920114    -0.08700
C1087       C  0.71161112  0.01461092  0.65758125     0.61700
H1088       H  0.68716486  0.94113534  0.69351189     0.12400
H1089       H  0.79290200  0.05353186  0.78150679     0.12400
C1090       C  0.76900735  0.97967795  0.81791344     0.61900
F1091       F  0.68385982  0.97926431  0.63645956    -0.23300
F1092       F  0.74459057  0.03654659  0.63077575    -0.20600
F1093       F  0.69252197  0.03671314  0.66566072    -0.20300
F1094       F  0.78465049  0.95438147  0.81033628    -0.20300
F1095       F  0.73712786  0.96153081  0.84685562    -0.20700
F1096       F  0.79990003  0.01513583  0.83626178    -0.23300
C1097       C  0.76002321  0.72730885  0.94687466    -0.06200
C1098       C  0.76848039  0.70846994  0.91312401    -0.00200
C1099       C  0.76074903  0.71548185  0.87059304    -0.08800
C1100       C  0.74124853  0.73832882  0.86366511    -0.06200
C1101       C  0.72886184  0.75348081  0.89794527    -0.00300
C1102       C  0.74008986  0.74949134  0.94003358    -0.08700
C1103       C  0.72875592  0.76627101  0.97791904     0.61700
H1104       H  0.76641219  0.72195797  0.97924481     0.12400
H1105       H  0.73322160  0.74232260  0.83150137     0.12400
C1106       C  0.77324035  0.69916576  0.83294285     0.61900
F1107       F  0.74942052  0.76658543  0.01463478    -0.23300
F1108       F  0.68733669  0.74199837  0.98506993    -0.20600
F1109       F  0.73817566  0.80577392  0.96979418    -0.20300
F1110       F  0.74988474  0.65717729  0.83188670    -0.20300
F1111       F  0.81420213  0.71085651  0.83671531    -0.20700
F1112       F  0.76794326  0.71394127  0.79449838    -0.23300
C1113       C  0.40161047  0.55875903  0.89506079    -0.06200
C1114       C  0.39328045  0.55331093  0.93899258    -0.00200
C1115       C  0.42367507  0.58053382  0.96825699    -0.08800
C1116       C  0.45881622  0.61517568  0.95230327    -0.06200
C1117       C  0.46487243  0.62274538  0.90835714    -0.00300
C1118       C  0.43741783  0.59262822  0.87920435    -0.08700
C1119       C  0.44427649  0.59483327  0.83131390     0.61700
H1120       H  0.37926085  0.53708146  0.87269615     0.12400
H1121       H  0.48053348  0.63794911  0.97425461     0.12400
C1122       C  0.41945770  0.57320954  0.01610150     0.61900
F1123       F  0.43947813  0.55827134  0.81700463    -0.23300
F1124       F  0.48313692  0.62520025  0.81983669    -0.20600
F1125       F  0.41565904  0.60152396  0.81115676    -0.20300
F1126       F  0.40703368  0.53294354  0.02452478    -0.20300
F1127       F  0.39113789  0.58228060  0.03243459    -0.20700
F1128       F  0.45634366  0.59726302  0.03708231    -0.23300
C1129       C  0.73458908  0.98807640  0.29210538    -0.06200
C1130       C  0.71974266  0.95911471  0.25909917    -0.00200
C1131       C  0.72744699  0.97202753  0.21601573    -0.08800
C1132       C  0.74794751  0.01404901  0.20739690    -0.06200
C1133       C  0.75958530  0.04291363  0.24035321    -0.00300
C1134       C  0.75408760  0.03003315  0.28344197    -0.08700
C1135       C  0.76858772  0.06040070  0.31993811     0.61700
H1136       H  0.72842136  0.97741291  0.32485166     0.12400
H1137       H  0.75273883  0.02462045  0.17461649     0.12400
C1138       C  0.71375117  0.94162369  0.17945735     0.61900
F1139       F  0.76375645  0.04164171  0.35914376    -0.23300
F1140       F  0.74643389  0.08016430  0.32052868    -0.20600
F1141       F  0.80972597  0.08868654  0.31472257    -0.20300
F1142       F  0.67144432  0.91893966  0.17767584    -0.20300
F1143       F  0.72900056  0.91577748  0.18552018    -0.20700
F1144       F  0.72772143  0.96078756  0.14040240    -0.23300
C1145       C  0.72941660  0.75453787  0.44537978    -0.06200
C1146       C  0.72420049  0.75718720  0.40137674    -0.00200
C1147       C  0.74198410  0.74221993  0.37203232    -0.08800
C1148       C  0.76099319  0.72140036  0.38810720    -0.06200
C1149       C  0.76359008  0.71623615  0.43208670    -0.00300
C1150       C  0.74969007  0.73497211  0.46142230    -0.08700
C1151       C  0.75467593  0.73299432  0.50934945     0.61700
H1152       H  0.71605863  0.76672532  0.46715634     0.12400
H1153       H  0.77256507  0.70743291  0.36640348     0.12400
C1154       C  0.73925294  0.74631204  0.32408519     0.61900
F1155       F  0.73739151  0.75182331  0.53192087    -0.23300
F1156       F  0.79592016  0.75257011  0.51943691    -0.20600
F1157       F  0.73593837  0.69290812  0.52250288    -0.20300
F1158       F  0.75952779  0.78705202  0.31315692    -0.20300
F1159       F  0.69869605  0.72817665  0.31154637    -0.20700
F1160       F  0.75710133  0.72795948  0.30168865    -0.23300
C1161       C  0.41766883  0.55670886  0.43605156    -0.06200
C1162       C  0.38033877  0.54765968  0.41707831    -0.00200
C1163       C  0.37997036  0.57295989  0.38436247    -0.08800
C1164       C  0.41673282  0.60816991  0.37396996    -0.06200
C1165       C  0.45360292  0.62054041  0.39647702    -0.00300
C1166       C  0.45466917  0.59282676  0.42619225    -0.08700
C1167       C  0.49384604  0.60132461  0.44821033     0.61700
H1168       H  0.41714016  0.53629362  0.46046946     0.12400
H1169       H  0.41577612  0.62741532  0.34901291     0.12400
C1170       C  0.34193986  0.56545389  0.35994472     0.61900
F1171       F  0.48786636  0.57000046  0.47520969    -0.23300
F1172       F  0.50893468  0.63640157  0.47232736    -0.20600
F1173       F  0.52221307  0.60567555  0.41778913    -0.20300
F1174       F  0.33716071  0.59897006  0.36429382    -0.20300
F1175       F  0.30630527  0.53165590  0.37357020    -0.20700
F1176       F  0.34696163  0.56016922  0.31711175    -0.23300
C1177       C  0.56936597  0.75307541  0.60944845    -0.06200
C1178       C  0.59213422  0.79052029  0.63092206    -0.00200
C1179       C  0.61618247  0.82632685  0.60657808    -0.08800
C1180       C  0.61525751  0.82329845  0.56167550    -0.06200
C1181       C  0.59206829  0.78591720  0.54010211    -0.00300
C1182       C  0.56909152  0.74992601  0.56452977    -0.08700
C1183       C  0.54402243  0.70836306  0.54375661     0.61700
H1184       H  0.55156799  0.72593422  0.62844213     0.12400
H1185       H  0.63319798  0.85050813  0.54281734     0.12400
C1186       C  0.64396984  0.86737800  0.62749083     0.61900
F1187       F  0.52193612  0.67811537  0.57343712    -0.23300
F1188       F  0.56991747  0.69834332  0.52294871    -0.20600
F1189       F  0.51649159  0.70882712  0.51490632    -0.20300
F1190       F  0.67032040  0.86419087  0.65583665    -0.20300
F1191       F  0.62067395  0.88021961  0.64896600    -0.20700
F1192       F  0.66755536  0.89706235  0.59782542    -0.23300
C1193       C  0.56729498  0.80258017  0.05974448    -0.06200
C1194       C  0.59576150  0.79398311  0.04087094    -0.00200
C1195       C  0.62203811  0.78732255  0.06763172    -0.08800
C1196       C  0.61897397  0.78959975  0.11220786    -0.06200
C1197       C  0.58994505  0.79730412  0.13108366    -0.00300
C1198       C  0.56338354  0.80361540  0.10440349    -0.08700
C1199       C  0.52992218  0.80953861  0.12286961     0.61700
H1200       H  0.54737589  0.80768926  0.03900325     0.12400
H1201       H  0.63877931  0.78432036  0.13295163     0.12400
C1202       C  0.65233832  0.77665541  0.04951388     0.61900
F1203       F  0.50478489  0.81098283  0.09153595    -0.23300
F1204       F  0.54746005  0.84582555  0.14525872    -0.20600
F1205       F  0.50582384  0.77731054  0.14972537    -0.20300
F1206       F  0.67555147  0.80424858  0.01809371    -0.20300
F1207       F  0.63073824  0.73783378  0.03260632    -0.20700
F1208       F  0.67891644  0.77720677  0.08038252    -0.23300
C1209       C  0.99301621  0.71511314  0.54403743    -0.06200
C1210       C  0.96357763  0.70822160  0.57510210    -0.00200
C1211       C  0.97600778  0.72283107  0.61712000    -0.08800
C1212       C  0.01777442  0.74054059  0.62784443    -0.06200
C1213       C  0.04688999  0.74390349  0.59768569    -0.00300
C1214       C  0.03481791  0.73332016  0.55446893    -0.08700
C1215       C  0.06564778  0.74137217  0.51936808     0.61700
H1216       H  0.98273276  0.70415702  0.51181860     0.12400
H1217       H  0.02761003  0.74987288  0.66050967     0.12400
C1218       C  0.94512644  0.71907136  0.65032045     0.61900
F1219       F  0.04885199  0.73857827  0.47924978    -0.23300
F1220       F  0.07847120  0.71330353  0.52155102    -0.20600
F1221       F  0.09915515  0.78022175  0.52368430    -0.20300
F1222       F  0.91844807  0.67849149  0.65946256    -0.20300
F1223       F  0.92302865  0.73623056  0.63477303    -0.20700
F1224       F  0.96407127  0.73888919  0.68795557    -0.23300
C1225       C  0.25382667  0.97338480  0.71265844    -0.06200
C1226       C  0.24477308  0.94762393  0.74817870    -0.00200
C1227       C  0.25341740  0.96445759  0.78983921    -0.08800
C1228       C  0.27399791  0.00705086  0.79425804    -0.06200
C1229       C  0.28624694  0.03286853  0.75855087    -0.00300
C1230       C  0.27477058  0.01602585  0.71712246    -0.08700
C1231       C  0.28415818  0.04292792  0.67810834     0.61700
H1232       H  0.24631732  0.95986930  0.68105412     0.12400
H1233       H  0.28272033  0.02067516  0.82576130     0.12400
C1234       C  0.24070093  0.93776475  0.82936669     0.61900
F1235       F  0.26861408  0.02024758  0.64106820    -0.23300
F1236       F  0.32602649  0.06759693  0.67319836    -0.20600
F1237       F  0.26669794  0.06698598  0.68301132    -0.20300
F1238       F  0.26285138  0.91811578  0.83245450    -0.20300
F1239       F  0.19936217  0.90914177  0.82700130    -0.20700
F1240       F  0.24735509  0.96028934  0.86636533    -0.23300
C1241       C  0.45090943  0.82764217  0.73052070    -0.06200
C1242       C  0.45905664  0.82703342  0.77406934    -0.00200
C1243       C  0.43400614  0.83162024  0.80465043    -0.08800
C1244       C  0.39803567  0.83059400  0.79061333    -0.06200
C1245       C  0.38739520  0.82627931  0.74713318    -0.00300
C1246       C  0.41590150  0.82813219  0.71643649    -0.08700
C1247       C  0.40858838  0.82722601  0.66872966     0.61700
H1248       H  0.47080822  0.82523747  0.70727764     0.12400
H1249       H  0.37666226  0.83027103  0.81383484     0.12400
C1250       C  0.44432318  0.83635358  0.85196282     0.61900
F1251       F  0.44544003  0.84858187  0.64714643    -0.23300
F1252       F  0.38540442  0.84486151  0.65867939    -0.20600
F1253       F  0.38870384  0.78732542  0.65478230    -0.20300
F1254       F  0.48600382  0.86211296  0.85800994    -0.20300
F1255       F  0.43269412  0.79880049  0.86956788    -0.20700
F1256       F  0.42415622  0.85282979  0.87350745    -0.23300
C1257       C  0.18510670  0.60879156  0.56476177    -0.06200
C1258       C  0.18658253  0.61602544  0.60879973    -0.00200
C1259       C  0.18396931  0.58611128  0.63778898    -0.08800
C1260       C  0.18396988  0.55172850  0.62144565    -0.06200
C1261       C  0.18649810  0.54658843  0.57745915    -0.00300
C1262       C  0.18441051  0.57411232  0.54846503    -0.08700
C1263       C  0.18255276  0.56884500  0.50031932     0.61700
H1264       H  0.18611875  0.63126658  0.54276680     0.12400
H1265       H  0.18510722  0.53017092  0.64317971     0.12400
C1266       C  0.18383693  0.59127185  0.68583660     0.61900
F1267       F  0.15419290  0.57775676  0.48330394    -0.23300
F1268       F  0.17081777  0.52949697  0.48826962    -0.20600
F1269       F  0.22060736  0.59537430  0.48320864    -0.20300
F1270       F  0.15879788  0.60654474  0.69685400    -0.20300
F1271       F  0.22333774  0.61764237  0.69973582    -0.20700
F1272       F  0.16946223  0.55450187  0.70680286    -0.23300
C1273       C  0.99460956  0.71690988  0.03829571    -0.06200
C1274       C  0.96471864  0.70560832  0.07024304    -0.00200
C1275       C  0.97694443  0.71547543  0.11344107    -0.08800
C1276       C  0.01868455  0.73364171  0.12353136    -0.06200
C1277       C  0.04837597  0.74286639  0.09197656    -0.00300
C1278       C  0.03658392  0.73553246  0.04845249    -0.08700
C1279       C  0.06809490  0.74783865  0.01307250     0.61700
H1280       H  0.98460602  0.70905324  0.00541742     0.12400
H1281       H  0.02811806  0.73969554  0.15678002     0.12400
C1282       C  0.94758523  0.70736859  0.15008564     0.61900
F1283       F  0.05030884  0.74155450  0.97297205    -0.23300
F1284       F  0.08747682  0.72539075  0.01556575    -0.20600
F1285       F  0.09694868  0.78876960  0.01699885    -0.20300
F1286       F  0.94623373  0.67732374  0.17602000    -0.20300
F1287       F  0.90826269  0.69541875  0.13656403    -0.20700
F1288       F  0.96159951  0.74259478  0.17395195    -0.23300
C1289       C  0.26582574  0.01911978  0.23067145    -0.06200
C1290       C  0.28522302  0.03146316  0.27051718    -0.00200
C1291       C  0.27984316  0.00195982  0.30134439    -0.08800
C1292       C  0.25637908  0.96069557  0.29040799    -0.06200
C1293       C  0.24001279  0.94814377  0.24925879    -0.00300
C1294       C  0.24325499  0.97764793  0.21916691    -0.08700
C1295       C  0.22528392  0.96596070  0.17442348     0.61700
H1296       H  0.27030796  0.04242530  0.20789193     0.12400
H1297       H  0.25325690  0.93777985  0.31303674     0.12400
C1298       C  0.30167175  0.01380996  0.34427273     0.61900
F1299       F  0.23282788  0.99959075  0.15045771    -0.23300
F1300       F  0.18324159  0.94064155  0.17689378    -0.20600
F1301       F  0.24235564  0.94628749  0.15312888    -0.20300
F1302       F  0.29182535  0.03927952  0.36603359    -0.20300
F1303       F  0.34351761  0.03341534  0.33779864    -0.20700
F1304       F  0.29096637  0.98022382  0.36984600    -0.23300
C1305       C  0.40928783  0.83796778  0.23002746    -0.06200
C1306       C  0.37902448  0.82501647  0.26147186    -0.00200
C1307       C  0.38755235  0.81836859  0.30364368    -0.08800
C1308       C  0.42564059  0.82182218  0.31209238    -0.06200
C1309       C  0.45449145  0.83043024  0.27947532    -0.00300
C1310       C  0.44704538  0.84061376  0.23814287    -0.08700
C1311       C  0.47691092  0.85068728  0.20182440     0.61700
H1312       H  0.40191561  0.84346000  0.19815136     0.12400
H1313       H  0.43203576  0.81491707  0.34377113     0.12400
C1314       C  0.35572448  0.80524686  0.33873718     0.61900
F1315       F  0.46153736  0.85505246  0.16324924    -0.23300
F1316       F  0.48509943  0.81952830  0.19739355    -0.20600
F1317       F  0.51264982  0.88677157  0.21050619    -0.20300
F1318       F  0.32170870  0.76821119  0.32823857    -0.20300
F1319       F  0.34411186  0.83407863  0.34353002    -0.20700
F1320       F  0.37068517  0.80103115  0.37766667    -0.23300
C1321       C  0.19157576  0.57701887  0.05123737    -0.06200
C1322       C  0.18928265  0.54934488  0.08230390    -0.00200
C1323       C  0.18392138  0.55579415  0.12583848    -0.08800
C1324       C  0.18420067  0.59172155  0.13696929    -0.06200
C1325       C  0.18907934  0.62057109  0.10606511    -0.00300
C1326       C  0.19156198  0.61272919  0.06228937    -0.08700
C1327       C  0.19676773  0.64295138  0.02762320     0.61700
H1328       H  0.19499611  0.57107064  0.01808898     0.12400
H1329       H  0.18187229  0.59828606  0.17020214     0.12400
C1330       C  0.17993880  0.52612464  0.16053934     0.61900
F1331       F  0.20230700  0.63072502  0.98775737    -0.23300
F1332       F  0.23069061  0.68061164  0.03642591    -0.20600
F1333       F  0.16224966  0.64659334  0.02560421    -0.20300
F1334       F  0.21343847  0.52072692  0.15964390    -0.20300
F1335       F  0.14452983  0.48909716  0.15407487    -0.20700
F1336       F  0.17782753  0.53985596  0.20091354    -0.23300
C1337       C  0.21312106  0.75097828  0.95462505    -0.06200
C1338       C  0.21743526  0.78555824  0.97538355    -0.00200
C1339       C  0.22248292  0.81899322  0.95046098    -0.08800
C1340       C  0.22290232  0.81640285  0.90553149    -0.06200
C1341       C  0.21841662  0.78173854  0.88477490    -0.00300
C1342       C  0.21393157  0.74854895  0.90974694    -0.08700
C1343       C  0.21041490  0.71074820  0.88941250     0.61700
H1344       H  0.20942080  0.72578991  0.97403276     0.12400
H1345       H  0.22640047  0.84149077  0.88609052     0.12400
C1346       C  0.22727511  0.85730438  0.97085933     0.61900
F1347       F  0.21511028  0.68650329  0.91912715    -0.23300
F1348       F  0.24043547  0.72160295  0.85867509    -0.20600
F1349       F  0.17214986  0.68793196  0.87096524    -0.20300
F1350       F  0.26560675  0.87898863  0.98944231    -0.20300
F1351       F  0.19739196  0.84736979  0.00154916    -0.20700
F1352       F  0.22375588  0.88229840  0.94113511    -0.23300
C1353       C  0.19511307  0.74460556  0.40483790    -0.06200
C1354       C  0.21001413  0.78250777  0.38462762    -0.00200
C1355       C  0.22426473  0.81800541  0.41017999    -0.08800
C1356       C  0.22156804  0.81376759  0.45488210    -0.06200
C1357       C  0.20656882  0.77588902  0.47516527    -0.00300
C1358       C  0.19351122  0.74054083  0.44964842    -0.08700
C1359       C  0.17876383  0.69879444  0.46901895     0.61700
H1360       H  0.18491087  0.71787151  0.38497122     0.12400
H1361       H  0.23170244  0.84054172  0.47465232     0.12400
C1362       C  0.24229885  0.86031573  0.39098405     0.61900
F1363       F  0.17329634  0.67023728  0.43831606    -0.23300
F1364       F  0.14157408  0.68530442  0.48912274    -0.20600
F1365       F  0.20723617  0.70081769  0.49823422    -0.20300
F1366       F  0.21525207  0.86102740  0.36167679    -0.20300
F1367       F  0.27896426  0.87094008  0.37111619    -0.20700
F1368       F  0.25032788  0.88962231  0.42173017    -0.23300
loop_ 
_geom_bond_atom_site_label_1 
_geom_bond_atom_site_label_2 
_geom_bond_distance 
_geom_bond_site_symmetry_2 
_ccdc_geom_bond_type 
Zr1           O2   2.441       .  S
Zr1           O3   2.454       .  S
Zr1           O4   2.433       .  S
Zr1           O7   2.426       .  S
Zr1           O9   2.377       .  S
Zr1          O10   2.379       .  S
Zr1          O11   2.409       .  S
Zr1          O12   2.404       .  S
O2           H58   0.990       .  S
O2           H66   0.990       .  S
O3           C23   1.288       .  A
O4           C25   1.282       .  A
O5          Zr15   2.419       .  S
O5           C24   1.282       .  A
O6          Zr14   2.428       .  S
O6           C25   1.283       .  A
O7           C24   1.282       .  A
O8          Zr16   2.418       .  S
O8           C23   1.280       .  A
O9          Zr14   2.398       .  S
O9          Zr16   2.383       .  S
O10         Zr15   2.391       .  S
O10         Zr16   2.373       .  S
O10          H45   0.966       .  S
O11         Zr14   2.394       .  S
O11         Zr31   2.392       .  S
O11          H48   0.965       .  S
O12         Zr15   2.383       .  S
O12         Zr31   2.395       .  S
Zr13         O38   2.443       .  S
Zr13         O32   2.437       .  S
Zr13         O40   2.438       .  S
Zr13         O28   2.431       .  S
Zr13         O19   2.402       .  S
Zr13         O20   2.406       .  S
Zr13         O21   2.380       .  S
Zr13         O22   2.380       .  S
Zr14         O33   2.436       .  S
Zr14         O26   2.434       .  S
Zr14         O27   2.424       .  S
Zr14         O20   2.402       .  S
Zr14         O21   2.397       .  S
Zr15         O17   2.439       .  S
Zr15         O39   2.436       .  S
Zr15         O41   2.413       .  S
Zr15         O19   2.393       .  S
Zr15         O22   2.388       .  S
Zr16         O42   2.437       .  S
Zr16         O43   2.436       .  S
Zr16         O18   2.437       .  S
Zr16         O19   2.390       .  S
Zr16         O20   2.382       .  S
O17          H54   0.990       .  S
O18          H49   0.990       .  S
O18          H63   0.990       .  S
O20          H46   0.964       .  S
O21         Zr31   2.378       .  S
O22         Zr31   2.375       .  S
O22          H47   0.966       .  S
C23        C1338   1.488   1_554  S
C24        C1325   1.473       .  S
C25        C1277   1.473       .  S
O26          H62   0.990       .  S
O27          C29   1.282       .  A
O28          C29   1.286       .  A
C29        C1293   1.482       .  S
O30         Zr31   2.438       .  S
O30          H59   0.990       .  S
Zr31         O34   2.436       .  S
Zr31         O35   2.438       .  S
Zr31         O36   2.424       .  S
O32          C37   1.282       .  A
O33          H50   0.990       .  S
O33          H65   0.990       .  S
O34          H51   0.990       .  S
O35          H55   0.990       .  S
O35          H64   0.990       .  S
O36          C37   1.283       .  A
C37        C1354   1.490       .  S
O38          H57   0.990       .  S
O38          H61   0.990       .  S
O39          H53   0.990       .  S
O39          H60   0.990       .  S
O40          C44   1.282       .  A
O41          C44   1.281       .  A
O42          H52   0.990       .  S
O43          H56   0.990       .  S
C44        C1306   1.466       .  S
Zr67         O68   2.440       .  S
Zr67         O69   2.437       .  S
Zr67         O70   2.446       .  S
Zr67         O73   2.450       .  S
Zr67         O75   2.385       .  S
Zr67         O76   2.384       .  S
Zr67         O77   2.407       .  S
Zr67         O78   2.396       .  S
O68         H124   0.990       .  S
O68         H132   0.990       .  S
O69          C89   1.283       .  A
O70          C91   1.285       .  A
O71         Zr81   2.415       .  S
O71          C90   1.281       .  A
O72         Zr80   2.429       .  S
O72          C91   1.284       .  A
O73          C90   1.288       .  A
O74         Zr82   2.421       .  S
O74          C89   1.282       .  A
O75         Zr80   2.397       .  S
O75         Zr82   2.377       .  S
O76         Zr81   2.392       .  S
O76         Zr82   2.373       .  S
O76         H111   0.966       .  S
O77         Zr80   2.400       .  S
O77         Zr97   2.394       .  S
O77         H114   0.966       .  S
O78         Zr81   2.385       .  S
O78         Zr97   2.384       .  S
Zr79        O104   2.442       .  S
Zr79         O98   2.464       .  S
Zr79        O106   2.462       .  S
Zr79         O94   2.451       .  S
Zr79         O85   2.408       .  S
Zr79         O86   2.420       .  S
Zr79         O87   2.382       .  S
Zr79         O88   2.379       .  S
Zr80         O99   2.435       .  S
Zr80         O92   2.437       .  S
Zr80         O93   2.427       .  S
Zr80         O86   2.404       .  S
Zr80         O87   2.399       .  S
Zr81         O83   2.434       .  S
Zr81        O105   2.438       .  S
Zr81        O107   2.415       .  S
Zr81         O85   2.386       .  S
Zr81         O88   2.391       .  S
Zr82        O108   2.434       .  S
Zr82        O109   2.436       .  S
Zr82         O84   2.439       .  S
Zr82         O85   2.395       .  S
Zr82         O86   2.391       .  S
O83         H120   0.990       .  S
O84         H115   0.990       .  S
O84         H129   0.990       .  S
O86         H112   0.965       .  S
O87         Zr97   2.383       .  S
O88         Zr97   2.382       .  S
O88         H113   0.966       .  S
C89        C1357   1.491       .  S
C90        C1258   1.479       .  S
C91        C1213   1.482       .  S
O92         H128   0.990       .  S
O93          C95   1.283       .  A
O94          C95   1.285       .  A
C95        C1226   1.478       .  S
O96         Zr97   2.441       .  S
O96         H125   0.990       .  S
Zr97        O100   2.437       .  S
Zr97        O101   2.441       .  S
Zr97        O102   2.410       .  S
O98         C103   1.290       .  A
O99         H116   0.990       .  S
O99         H131   0.990       .  S
O100        H117   0.990       .  S
O101        H121   0.989       .  S
O101        H130   0.990       .  S
O102        C103   1.279       .  A
C103       C1341   1.489       .  S
O104        H123   0.991       .  S
O104        H127   0.990       .  S
O105        H119   0.990       .  S
O105        H126   0.990       .  S
O106        C110   1.289       .  A
O107        C110   1.282       .  A
O108        H118   0.990       .  S
O109        H122   0.990       .  S
C110       C1245   1.485       .  S
Zr133       O134   2.436       .  S
Zr133       O135   2.457       .  S
Zr133       O136   2.442       .  S
Zr133       O139   2.483       .  S
Zr133       O141   2.386       .  S
Zr133       O142   2.382       .  S
Zr133       O143   2.412       .  S
Zr133       O144   2.396       .  S
O134        H190   0.988       .  S
O134        H198   0.990       .  S
O135        C155   1.287       .  A
O136        C157   1.287       .  A
O137       Zr147   2.394       .  S
O137        C156   1.280       .  A
O138       Zr146   2.430       .  S
O138        C157   1.284       .  A
O139        C156   1.292       .  A
O140       Zr148   2.411       .  S
O140        C155   1.280       .  A
O141       Zr146   2.398       .  S
O141       Zr148   2.376       .  S
O142       Zr147   2.384       .  S
O142       Zr148   2.376       .  S
O142        H177   0.966       .  S
O143       Zr146   2.403       .  S
O143       Zr163   2.382       .  S
O143        H180   0.963       .  S
O144       Zr147   2.383       .  S
O144       Zr163   2.382       .  S
Zr145       O170   2.439       .  S
Zr145       O164   2.461       .  S
Zr145       O172   2.452       .  S
Zr145       O160   2.438       .  S
Zr145       O151   2.402       .  S
Zr145       O152   2.416       .  S
Zr145       O153   2.378       .  S
Zr145       O154   2.380       .  S
Zr146       O165   2.434       .  S
Zr146       O158   2.434       .  S
Zr146       O159   2.431       .  S
Zr146       O152   2.403       .  S
Zr146       O153   2.392       .  S
Zr147       O149   2.435       .  S
Zr147       O171   2.437       .  S
Zr147       O173   2.399       .  S
Zr147       O151   2.379       .  S
Zr147       O154   2.389       .  S
Zr148       O174   2.437       .  S
Zr148       O175   2.435       .  S
Zr148       O150   2.437       .  S
Zr148       O151   2.389       .  S
Zr148       O152   2.392       .  S
O149        H186   0.990       .  S
O150        H181   0.990       .  S
O150        H195   0.990       .  S
O152        H178   0.965       .  S
O153       Zr163   2.381       .  S
O154       Zr163   2.380       .  S
O154        H179   0.966       .  S
C155       C1181   1.495       .  S
C156       C1165   1.503       .  S
C157       C1146   1.476       .  S
O158        H194   0.990       .  S
O159        C161   1.283       .  A
O160        C161   1.282       .  A
C161       C1130   1.473       .  S
O162       Zr163   2.438       .  S
O162        H191   0.990       .  S
Zr163       O166   2.438       .  S
Zr163       O167   2.439       .  S
Zr163       O168   2.405       .  S
O164        C169   1.288       .  A
O165        H182   0.990       .  S
O165        H197   0.989       .  S
O166        H183   0.990       .  S
O167        H187   0.990       .  S
O167        H196   0.990       .  S
O168        C169   1.279       .  A
C169       C1197   1.488       .  S
O170        H189   0.990       .  S
O170        H193   0.990       .  S
O171        H185   0.990       .  S
O171        H192   0.990       .  S
O172        C176   1.287       .  A
O173        C176   1.280       .  A
O174        H184   0.990       .  S
O175        H188   0.990       .  S
C176       C1309   1.483       .  S
Zr199       O200   2.440       .  S
Zr199       O201   2.469       .  S
Zr199       O202   2.457       .  S
Zr199       O205   2.457       .  S
Zr199       O207   2.386       .  S
Zr199       O208   2.382       .  S
Zr199       O209   2.418       .  S
Zr199       O210   2.405       .  S
O200        H256   0.990       .  S
O200        H264   0.991       .  S
O201        C221   1.289       .  A
O202        C223   1.287       .  A
O203       Zr213   2.420       .  S
O203        C222   1.283       .  A
O204       Zr212   2.445       .  S
O204        C223   1.286       .  A
O205        C222   1.289       .  A
O206       Zr214   2.406       .  S
O206        C221   1.279       .  A
O207       Zr212   2.408       .  S
O207       Zr214   2.387       .  S
O208       Zr213   2.395       .  S
O208       Zr214   2.380       .  S
O208        H243   0.965       .  S
O209       Zr212   2.404       .  S
O209       Zr229   2.388       .  S
O209        H246   0.964       .  S
O210       Zr213   2.383       .  S
O210       Zr229   2.390       .  S
Zr211       O236   2.443       .  S
Zr211       O230   2.453       .  S
Zr211       O238   2.447       .  S
Zr211       O226   2.426       .  S
Zr211       O217   2.398       .  S
Zr211       O218   2.415       .  S
Zr211       O219   2.380       .  S
Zr211       O220   2.380       .  S
Zr212       O231   2.435       .  S
Zr212       O224   2.435       .  S
Zr212       O225   2.445       .  S
Zr212       O218   2.407       .  S
Zr212       O219   2.399       .  S
Zr213       O215   2.436       .  S
Zr213       O237   2.440       .  S
Zr213       O239   2.421       .  S
Zr213       O217   2.385       .  S
Zr213       O220   2.395       .  S
Zr214       O240   2.437       .  S
Zr214       O241   2.437       .  S
Zr214       O216   2.439       .  S
Zr214       O217   2.388       .  S
Zr214       O218   2.384       .  S
O215        H252   0.990       .  S
O216        H247   0.990       .  S
O216        H261   0.990       .  S
O218        H244   0.964       .  S
O219       Zr229   2.378       .  S
O220       Zr229   2.380       .  S
O220        H245   0.966       .  S
C221       C1194   1.490   1_556  S
C222       C1117   1.481       .  S
C223       C1101   1.487       .  S
O224        H260   0.990       .  S
O225        C227   1.285       .  A
O226        C227   1.284       .  A
C227       C1082   1.489       .  S
O228       Zr229   2.437       .  S
O228        H257   0.990       .  S
Zr229       O232   2.437       .  S
Zr229       O233   2.439       .  S
Zr229       O234   2.418       .  S
O230        C235   1.286       .  A
O231        H248   0.990       .  S
O231        H263   0.990       .  S
O232        H249   0.990       .  S
O233        H253   0.990       .  S
O233        H262   0.989       .  S
O234        C235   1.281       .  A
C235       C1178   1.493       .  S
O236        H255   0.991       .  S
O236        H259   0.990       .  S
O237        H251   0.990       .  S
O237        H258   0.990       .  S
O238        C242   1.287       .  A
O239        C242   1.282       .  A
O240        H250   0.990       .  S
O241        H254   0.990       .  S
C242       C1242   1.481       .  S
Zr265       O266   2.440       .  S
Zr265       O267   2.441       .  S
Zr265       O268   2.446       .  S
Zr265       O271   2.466       .  S
Zr265       O273   2.384       .  S
Zr265       O274   2.386       .  S
Zr265       O275   2.410   1_556  S
Zr265       O276   2.403   1_556  S
O266        H322   0.990       .  S
O266        H330   0.990       .  S
O267        C287   1.284       .  A
O268        C289   1.287       .  A
O269       Zr279   2.415   1_556  S
O269        C288   1.281       .  A
O270       Zr278   2.435       .  S
O270        C289   1.284       .  A
O271        C288   1.290       .  A
O272       Zr280   2.411       .  S
O272        C287   1.280       .  A
O273       Zr278   2.394       .  S
O273       Zr280   2.377       .  S
O274       Zr279   2.398   1_556  S
O274       Zr280   2.374       .  S
O274        H309   0.967       .  S
O275       Zr278   2.400   1_554  S
O275       Zr295   2.375       .  S
O275        H312   0.969       .  S
O276       Zr279   2.395       .  S
O276       Zr295   2.394       .  S
Zr277       O302   2.441       .  S
Zr277       O296   2.457       .  S
Zr277       O304   2.437       .  S
Zr277       O292   2.434       .  S
Zr277       O283   2.406       .  S
Zr277       O284   2.406   1_554  S
Zr277       O285   2.379       .  S
Zr277       O286   2.380       .  S
Zr278       O297   2.437   1_556  S
Zr278       O290   2.434       .  S
Zr278       O291   2.433   1_556  S
Zr278       O284   2.397       .  S
Zr278       O285   2.399   1_556  S
Zr279       O281   2.436       .  S
Zr279       O303   2.437   1_554  S
Zr279       O305   2.420       .  S
Zr279       O283   2.392       .  S
Zr279       O286   2.387       .  S
Zr280       O306   2.436       .  S
Zr280       O307   2.436       .  S
Zr280       O282   2.439       .  S
Zr280       O283   2.394   1_556  S
Zr280       O284   2.389       .  S
O281        H318   0.990       .  S
O282        H313   0.990       .  S
O282        H327   0.989       .  S
O284        H310   0.964       .  S
O285       Zr295   2.382       .  S
O286       Zr295   2.371       .  S
O286        H311   0.966       .  S
C287       C1018   1.482       .  S
C288       C1114   1.488       .  S
C289       C1066   1.472       .  S
O290        H326   0.990       .  S
O291        C293   1.284       .  A
O292        C293   1.286       .  A
C293       C1053   1.486       .  S
O294       Zr295   2.438       .  S
O294        H323   0.990       .  S
Zr295       O298   2.437       .  S
Zr295       O299   2.439       .  S
Zr295       O300   2.408       .  S
O296        C301   1.287       .  A
O297        H314   0.990       .  S
O297        H329   0.989       .  S
O298        H315   0.990       .  S
O299        H319   0.990       .  S
O299        H328   0.990       .  S
O300        C301   1.281       .  A
C301       C1034   1.499       .  S
O302        H321   0.990       .  S
O302        H325   0.990       .  S
O303        H317   0.990       .  S
O303        H324   0.990       .  S
O304        C308   1.283       .  A
O305        C308   1.283       .  A
O306        H316   0.990       .  S
O307        H320   0.990       .  S
C308       C1322   1.477       .  S
Zr331       O332   2.442       .  S
Zr331       O333   2.452       .  S
Zr331       O334   2.428       .  S
Zr331       O337   2.436       .  S
Zr331       O339   2.381       .  S
Zr331       O340   2.378       .  S
Zr331       O341   2.409       .  S
Zr331       O342   2.404       .  S
O332        H388   0.990       .  S
O332        H396   0.991       .  S
O333        C353   1.286       .  A
O334        C355   1.282       .  A
O335       Zr345   2.419       .  S
O335        C354   1.282       .  A
O336       Zr344   2.432       .  S
O336        C355   1.284       .  A
O337        C354   1.284       .  A
O338       Zr346   2.414       .  S
O338        C353   1.281       .  A
O339       Zr344   2.399       .  S
O339       Zr346   2.379       .  S
O340       Zr345   2.389       .  S
O340       Zr346   2.371       .  S
O340        H375   0.965       .  S
O341       Zr344   2.401       .  S
O341       Zr361   2.390       .  S
O341        H378   0.965       .  S
O342       Zr345   2.386       .  S
O342       Zr361   2.395       .  S
Zr343       O368   2.441       .  S
Zr343       O362   2.450       .  S
Zr343       O370   2.438       .  S
Zr343       O358   2.443       .  S
Zr343       O349   2.403       .  S
Zr343       O350   2.411       .  S
Zr343       O351   2.381       .  S
Zr343       O352   2.380       .  S
Zr344       O363   2.436       .  S
Zr344       O356   2.436       .  S
Zr344       O357   2.433       .  S
Zr344       O350   2.403       .  S
Zr344       O351   2.400       .  S
Zr345       O347   2.435       .  S
Zr345       O369   2.436       .  S
Zr345       O371   2.419       .  S
Zr345       O349   2.385       .  S
Zr345       O352   2.389       .  S
Zr346       O372   2.435       .  S
Zr346       O373   2.436       .  S
Zr346       O348   2.436       .  S
Zr346       O349   2.392       .  S
Zr346       O350   2.387       .  S
O347        H384   0.990       .  S
O348        H379   0.990       .  S
O348        H393   0.990       .  S
O350        H376   0.965       .  S
O351       Zr361   2.386       .  S
O352       Zr361   2.382       .  S
O352        H377   0.966       .  S
C353       C1037   1.503       .  S
C354       C1162   1.467       .  S
C355       C1005   1.470       .  S
O356        H392   0.990       .  S
O357        C359   1.284       .  A
O358        C359   1.284       .  A
C359        C986   1.478       .  S
O360       Zr361   2.441       .  S
O360        H389   0.990       .  S
Zr361       O364   2.438       .  S
Zr361       O365   2.442       .  S
Zr361       O366   2.412       .  S
O362        C367   1.286       .  A
O363        H380   0.990       .  S
O363        H395   0.990       .  S
O364        H381   0.990       .  S
O365        H385   0.990       .  S
O365        H394   0.990       .  S
O366        C367   1.279       .  A
C367       C1021   1.483       .  S
O368        H387   0.990       .  S
O368        H391   0.990       .  S
O369        H383   0.990       .  S
O369        H390   0.989       .  S
O370        C374   1.285       .  A
O371        C374   1.283       .  A
O372        H382   0.989       .  S
O373        H386   0.990       .  S
C374       C1261   1.475       .  S
Zr397       O398   2.443       .  S
Zr397       O399   2.455       .  S
Zr397       O400   2.441       .  S
Zr397       O403   2.451       .  S
Zr397       O405   2.379       .  S
Zr397       O406   2.383       .  S
Zr397       O407   2.413       .  S
Zr397       O408   2.404       .  S
O398        H454   0.990       .  S
O398        H462   0.991       .  S
O399        C419   1.287       .  A
O400        C421   1.284       .  A
O401       Zr411   2.422       .  S
O401        C420   1.281       .  A
O402       Zr410   2.418       .  S
O402        C421   1.280       .  A
O403        C420   1.289       .  A
O404       Zr412   2.416       .  S
O404        C419   1.279       .  A
O405       Zr410   2.404       .  S
O405       Zr412   2.381       .  S
O406       Zr411   2.398       .  S
O406       Zr412   2.373       .  S
O406        H441   0.966       .  S
O407       Zr410   2.400       .  S
O407       Zr427   2.385       .  S
O407        H444   0.965       .  S
O408       Zr411   2.385       .  S
O408       Zr427   2.393       .  S
Zr409       O434   2.442       .  S
Zr409       O428   2.458       .  S
Zr409       O436   2.439       .  S
Zr409       O424   2.451       .  S
Zr409       O415   2.405       .  S
Zr409       O416   2.414       .  S
Zr409       O417   2.381       .  S
Zr409       O418   2.382       .  S
Zr410       O429   2.436       .  S
Zr410       O422   2.436       .  S
Zr410       O423   2.427       .  S
Zr410       O416   2.399       .  S
Zr410       O417   2.401       .  S
Zr411       O413   2.434       .  S
Zr411       O435   2.440       .  S
Zr411       O437   2.425       .  S
Zr411       O415   2.385       .  S
Zr411       O418   2.391       .  S
Zr412       O438   2.437       .  S
Zr412       O439   2.436       .  S
Zr412       O414   2.437       .  S
Zr412       O415   2.388       .  S
Zr412       O416   2.387       .  S
O413        H450   0.990       .  S
O414        H445   0.990       .  S
O414        H459   0.990       .  S
O416        H442   0.961       .  S
O417       Zr427   2.386       .  S
O418       Zr427   2.382       .  S
O418        H443   0.966       .  S
C419        C954   1.483       .  S
C420        C938   1.489       .  S
C421       C1002   1.466       .  S
O422        H458   0.990       .  S
O423        C425   1.282       .  A
O424        C425   1.286       .  A
C425       C1290   1.471       .  S
O426       Zr427   2.440       .  S
O426        H455   0.990       .  S
Zr427       O430   2.436       .  S
Zr427       O431   2.440       .  S
Zr427       O432   2.414       .  S
O428        C433   1.287       .  A
O429        H446   0.990       .  S
O429        H461   0.990       .  S
O430        H447   0.989       .  S
O431        H451   0.990       .  S
O431        H460   0.990       .  S
O432        C433   1.279       .  A
C433        C970   1.488       .  S
O434        H453   0.990       .  S
O434        H457   0.990       .  S
O435        H449   0.990       .  S
O435        H456   0.990       .  S
O436        C440   1.284       .  A
O437        C440   1.284       .  A
O438        H448   0.990       .  S
O439        H452   0.990       .  S
C440        C922   1.473       .  S
Zr463       O464   2.444       .  S
Zr463       O465   2.455       .  S
Zr463       O466   2.439       .  S
Zr463       O469   2.450       .  S
Zr463       O471   2.382       .  S
Zr463       O472   2.378       .  S
Zr463       O473   2.415       .  S
Zr463       O474   2.404       .  S
O464        H520   0.991       .  S
O464        H528   0.991       .  S
O465        C485   1.288       .  A
O466        C487   1.285       .  A
O467       Zr477   2.408       .  S
O467        C486   1.280       .  A
O468       Zr476   2.435       .  S
O468        C487   1.283       .  A
O469        C486   1.287       .  A
O470       Zr478   2.417       .  S
O470        C485   1.280       .  A
O471       Zr476   2.403       .  S
O471       Zr478   2.387       .  S
O472       Zr477   2.388       .  S
O472       Zr478   2.373       .  S
O472        H507   0.966       .  S
O473       Zr476   2.400       .  S
O473       Zr493   2.388       .  S
O473        H510   0.964       .  S
O474       Zr477   2.383       .  S
O474       Zr493   2.394       .  S
Zr475       O500   2.441       .  S
Zr475       O494   2.456       .  S
Zr475       O502   2.451       .  S
Zr475       O490   2.449       .  S
Zr475       O481   2.405       .  S
Zr475       O482   2.411       .  S
Zr475       O483   2.382       .  S
Zr475       O484   2.382       .  S
Zr476       O495   2.432       .  S
Zr476       O488   2.435       .  S
Zr476       O489   2.429       .  S
Zr476       O482   2.398       .  S
Zr476       O483   2.398       .  S
Zr477       O479   2.436       .  S
Zr477       O501   2.439       .  S
Zr477       O503   2.397       .  S
Zr477       O481   2.390       .  S
Zr477       O484   2.392       .  S
Zr478       O504   2.435       .  S
Zr478       O505   2.437       .  S
Zr478       O480   2.438       .  S
Zr478       O481   2.393       .  S
Zr478       O482   2.378       .  S
O479        H516   0.990       .  S
O480        H511   0.990       .  S
O480        H525   0.990       .  S
O482        H508   0.964       .  S
O483       Zr493   2.382       .  S
O484       Zr493   2.373       .  S
O484        H509   0.966       .  S
C485        C973   1.488   1_556  S
C486        C906   1.480       .  S
C487       C1069   1.483       .  S
O488        H524   0.990       .  S
O489        C491   1.284       .  A
O490        C491   1.288       .  A
C491       C1229   1.475       .  S
O492       Zr493   2.440       .  S
O492        H521   0.990       .  S
Zr493       O496   2.436       .  S
Zr493       O497   2.439       .  S
Zr493       O498   2.425       .  S
O494        C499   1.288       .  A
O495        H512   0.990       .  S
O495        H527   0.989       .  S
O496        H513   0.990       .  S
O497        H517   0.990       .  S
O497        H526   0.990       .  S
O498        C499   1.281       .  A
C499        C957   1.484       .  S
O500        H519   0.990       .  S
O500        H523   0.991       .  S
O501        H515   0.990       .  S
O501        H522   0.990       .  S
O502        C506   1.286       .  A
O503        C506   1.278       .  A
O504        H514   0.990       .  S
O505        H518   0.990       .  S
C506        C890   1.472       .  S
Zr529       O530   2.440       .  S
Zr529       O531   2.452       .  S
Zr529       O532   2.445       .  S
Zr529       O535   2.444       .  S
Zr529       O537   2.381       .  S
Zr529       O538   2.382       .  S
Zr529       O539   2.411       .  S
Zr529       O540   2.406       .  S
O530        H586   0.990       .  S
O530        H594   0.990       .  S
O531        C551   1.287       .  A
O532        C553   1.285       .  A
O533       Zr543   2.424       .  S
O533        C552   1.282       .  A
O534       Zr542   2.439       .  S
O534        C553   1.284       .  A
O535        C552   1.286       .  A
O536       Zr544   2.405       .  S
O536        C551   1.276       .  A
O537       Zr542   2.403       .  S
O537       Zr544   2.384       .  S
O538       Zr543   2.396       .  S
O538       Zr544   2.378       .  S
O538        H573   0.966       .  S
O539       Zr542   2.402       .  S
O539       Zr559   2.389       .  S
O539        H576   0.964       .  S
O540       Zr543   2.384       .  S
O540       Zr559   2.400       .  S
Zr541       O566   2.442       .  S
Zr541       O560   2.455       .  S
Zr541       O568   2.443       .  S
Zr541       O556   2.459       .  S
Zr541       O547   2.402       .  S
Zr541       O548   2.408       .  S
Zr541       O549   2.382       .  S
Zr541       O550   2.388       .  S
Zr542       O561   2.437       .  S
Zr542       O554   2.435       .  S
Zr542       O555   2.436       .  S
Zr542       O548   2.402       .  S
Zr542       O549   2.406       .  S
Zr543       O545   2.435       .  S
Zr543       O567   2.440       .  S
Zr543       O569   2.419       .  S
Zr543       O547   2.386       .  S
Zr543       O550   2.395       .  S
Zr544       O570   2.436       .  S
Zr544       O571   2.435       .  S
Zr544       O546   2.440       .  S
Zr544       O547   2.383       .  S
Zr544       O548   2.383       .  S
O545        H582   0.990       .  S
O546        H577   0.990       .  S
O546        H591   0.989       .  S
O548        H574   0.961       .  S
O549       Zr559   2.383       .  S
O550       Zr559   2.383       .  S
O550        H575   0.966       .  S
C551        C877   1.486       .  S
C552        C925   1.482       .  S
C553       C1133   1.477       .  S
O554        H590   0.990       .  S
O555        C557   1.285       .  A
O556        C557   1.287       .  A
C557       C1050   1.482       .  S
O558       Zr559   2.441       .  S
O558        H587   0.990       .  S
Zr559       O562   2.437       .  S
Zr559       O563   2.440       .  S
Zr559       O564   2.428       .  S
O560        C565   1.287   1_554  A
O561        H578   0.990       .  S
O561        H593   0.990       .  S
O562        H579   0.989       .  S
O563        H583   0.990       .  S
O563        H592   0.989       .  S
O564        C565   1.281   1_554  A
C565        C861   1.493       .  S
O566        H585   0.991       .  S
O566        H589   0.990       .  S
O567        H581   0.990       .  S
O567        H588   0.990       .  S
O568        C572   1.285       .  A
O569        C572   1.282       .  A
O570        H580   0.990       .  S
O571        H584   0.990       .  S
C572        C842   1.468       .  S
Zr595       O596   2.440       .  S
Zr595       O597   2.450       .  S
Zr595       O598   2.447       .  S
Zr595       O601   2.450       .  S
Zr595       O603   2.381       .  S
Zr595       O604   2.382       .  S
Zr595       O605   2.406       .  S
Zr595       O606   2.404       .  S
O596        H652   0.989       .  S
O596        H660   0.990       .  S
O597        C617   1.287       .  A
O598        C619   1.287       .  A
O599       Zr609   2.407       .  S
O599        C618   1.281       .  A
O600       Zr608   2.432       .  S
O600        C619   1.283       .  A
O601        C618   1.286       .  A
O602       Zr610   2.420       .  S
O602        C617   1.280       .  A
O603       Zr608   2.397       .  S
O603       Zr610   2.384       .  S
O604       Zr609   2.391       .  S
O604       Zr610   2.370       .  S
O604        H639   0.966       .  S
O605       Zr608   2.396       .  S
O605       Zr625   2.382       .  S
O605        H642   0.962       .  S
O606       Zr609   2.391       .  S
O606       Zr625   2.389       .  S
Zr607       O632   2.440       .  S
Zr607       O626   2.457       .  S
Zr607       O634   2.459       .  S
Zr607       O622   2.453       .  S
Zr607       O613   2.407       .  S
Zr607       O614   2.416       .  S
Zr607       O615   2.385       .  S
Zr607       O616   2.383       .  S
Zr608       O627   2.437       .  S
Zr608       O620   2.435       .  S
Zr608       O621   2.422       .  S
Zr608       O614   2.397       .  S
Zr608       O615   2.405       .  S
Zr609       O611   2.437       .  S
Zr609       O633   2.439       .  S
Zr609       O635   2.407       .  S
Zr609       O613   2.391       .  S
Zr609       O616   2.388       .  S
Zr610       O636   2.435       .  S
Zr610       O637   2.437       .  S
Zr610       O612   2.437       .  S
Zr610       O613   2.391       .  S
Zr610       O614   2.388       .  S
O611        H648   0.990       .  S
O612        H643   0.990       .  S
O612        H657   0.990       .  S
O614        H640   0.964       .  S
O615       Zr625   2.389       .  S
O616       Zr625   2.372       .  S
O616        H641   0.966       .  S
C617        C858   1.488       .  S
C618        C893   1.481       .  S
C619       C1085   1.473       .  S
O620        H656   0.990       .  S
O621        C623   1.281       .  A
O622        C623   1.287       .  A
C623        C989   1.474       .  S
O624       Zr625   2.439       .  S
O624        H653   0.991       .  S
Zr625       O628   2.435       .  S
Zr625       O629   2.441       .  S
Zr625       O630   2.408       .  S
O626        C631   1.287       .  A
O627        H644   0.990       .  S
O627        H659   0.989       .  S
O628        H645   0.990       .  S
O629        H649   0.990       .  S
O629        H658   0.990       .  S
O630        C631   1.278       .  A
C631        C874   1.485       .  S
O632        H651   0.990       .  S
O632        H655   0.990       .  S
O633        H647   0.990       .  S
O633        H654   0.990       .  S
O634        C638   1.288       .  A
O635        C638   1.280       .  A
O636        H646   0.990       .  S
O637        H650   0.990       .  S
C638        C829   1.476       .  S
Zr661       O662   2.440       .  S
Zr661       O663   2.454       .  S
Zr661       O664   2.457       .  S
Zr661       O667   2.458       .  S
Zr661       O669   2.383       .  S
Zr661       O670   2.379       .  S
Zr661       O671   2.416       .  S
Zr661       O672   2.408   1_556  S
O662        H718   0.990       .  S
O662        H726   0.990       .  S
O663        C683   1.288       .  A
O664        C685   1.287       .  A
O665       Zr675   2.398   1_556  S
O665        C684   1.278       .  A
O666       Zr674   2.436       .  S
O666        C685   1.285       .  A
O667        C684   1.288       .  A
O668       Zr676   2.411       .  S
O668        C683   1.278       .  A
O669       Zr674   2.398       .  S
O669       Zr676   2.384       .  S
O670       Zr675   2.396   1_556  S
O670       Zr676   2.376       .  S
O670        H705   0.966       .  S
O671       Zr674   2.404       .  S
O671       Zr691   2.393   1_556  S
O671        H708   0.964       .  S
O672       Zr675   2.384       .  S
O672       Zr691   2.401       .  S
Zr673       O698   2.440       .  S
Zr673       O692   2.464       .  S
Zr673       O700   2.467       .  S
Zr673       O688   2.441       .  S
Zr673       O679   2.393       .  S
Zr673       O680   2.420   1_554  S
Zr673       O681   2.380       .  S
Zr673       O682   2.382       .  S
Zr674       O693   2.437   1_556  S
Zr674       O686   2.434       .  S
Zr674       O687   2.427   1_556  S
Zr674       O680   2.403       .  S
Zr674       O681   2.401   1_556  S
Zr675       O677   2.436       .  S
Zr675       O699   2.439   1_554  S
Zr675       O701   2.400       .  S
Zr675       O679   2.377       .  S
Zr675       O682   2.388       .  S
Zr676       O702   2.436       .  S
Zr676       O703   2.436       .  S
Zr676       O678   2.438       .  S
Zr676       O679   2.378   1_556  S
Zr676       O680   2.394       .  S
O677        H714   0.990       .  S
O678        H709   0.990       .  S
O678        H723   0.990       .  S
O680        H706   0.965       .  S
O681       Zr691   2.380       .  S
O682       Zr691   2.382       .  S
O682        H707   0.965       .  S
C683        C794   1.485       .  S
C684        C909   1.483       .  S
C685       C1098   1.483       .  S
O686        H722   0.990       .  S
O687        C689   1.283       .  A
O688        C689   1.284       .  A
C689       C1274   1.470       .  S
O690       Zr691   2.439       .  S
O690        H719   0.990       .  S
Zr691       O694   2.437       .  S
Zr691       O695   2.440       .  S
Zr691       O696   2.428       .  S
O692        C697   1.289       .  A
O693        H710   0.990       .  S
O693        H725   0.990       .  S
O694        H711   0.990       .  S
O695        H715   0.990       .  S
O695        H724   0.990       .  S
O696        C697   1.282       .  A
C697        C810   1.499       .  S
O698        H717   0.991       .  S
O698        H721   0.990       .  S
O699        H713   0.990       .  S
O699        H720   0.990       .  S
O700        C704   1.289       .  A
O701        C704   1.280       .  A
O702        H712   0.989       .  S
O703        H716   0.990       .  S
C704        C845   1.485       .  S
Zr727       O728   2.438       .  S
Zr727       O729   2.461       .  S
Zr727       O730   2.449       .  S
Zr727       O733   2.451       .  S
Zr727       O735   2.380       .  S
Zr727       O736   2.381       .  S
Zr727       O737   2.410       .  S
Zr727       O738   2.406       .  S
O728        H784   0.990       .  S
O728        H792   0.990       .  S
O729        C749   1.288       .  A
O730        C751   1.288       .  A
O731       Zr741   2.415       .  S
O731        C750   1.281       .  A
O732       Zr740   2.421       .  S
O732        C751   1.282       .  A
O733        C750   1.288       .  A
O734       Zr742   2.424       .  S
O734        C749   1.282       .  A
O735       Zr740   2.401       .  S
O735       Zr742   2.374       .  S
O736       Zr741   2.392       .  S
O736       Zr742   2.372       .  S
O736        H771   0.966       .  S
O737       Zr740   2.404       .  S
O737       Zr757   2.389       .  S
O737        H774   0.964       .  S
O738       Zr741   2.386       .  S
O738       Zr757   2.391       .  S
Zr739       O764   2.442       .  S
Zr739       O758   2.447       .  S
Zr739       O766   2.442       .  S
Zr739       O754   2.440       .  S
Zr739       O745   2.403       .  S
Zr739       O746   2.412       .  S
Zr739       O747   2.381       .  S
Zr739       O748   2.382       .  S
Zr740       O759   2.435       .  S
Zr740       O752   2.434       .  S
Zr740       O753   2.429       .  S
Zr740       O746   2.402       .  S
Zr740       O747   2.394       .  S
Zr741       O743   2.436       .  S
Zr741       O765   2.437       .  S
Zr741       O767   2.418       .  S
Zr741       O745   2.385       .  S
Zr741       O748   2.388       .  S
Zr742       O768   2.434       .  S
Zr742       O769   2.434       .  S
Zr742       O744   2.437       .  S
Zr742       O745   2.396       .  S
Zr742       O746   2.393       .  S
O743        H780   0.990       .  S
O744        H775   0.990       .  S
O744        H789   0.990       .  S
O746        H772   0.965       .  S
O747       Zr757   2.381       .  S
O748       Zr757   2.382       .  S
O748        H773   0.966       .  S
C749        C813   1.495       .  S
C750        C941   1.476       .  S
C751       C1149   1.475       .  S
O752        H788   0.990       .  S
O753        C755   1.282       .  A
O754        C755   1.283       .  A
C755       C1210   1.470       .  S
O756       Zr757   2.444       .  S
O756        H785   0.990       .  S
Zr757       O760   2.439       .  S
Zr757       O761   2.441       .  S
Zr757       O762   2.416       .  S
O758        C763   1.286       .  A
O759        H776   0.990       .  S
O759        H791   0.989       .  S
O760        H777   0.989       .  S
O761        H781   0.990       .  S
O761        H790   0.990       .  S
O762        C763   1.280       .  A
C763        C797   1.483       .  S
O764        H783   0.991       .  S
O764        H787   0.991       .  S
O765        H779   0.990       .  S
O765        H786   0.990       .  S
O766        C770   1.286       .  A
O767        C770   1.281       .  A
O768        H778   0.990       .  S
O769        H782   0.990       .  S
C770        C826   1.475       .  S
C793        C794   1.401       .  A
C793        C798   1.404       .  A
C793        H800   1.083       .  S
C794        C795   1.422       .  A
C795        C796   1.411       .  A
C795        C802   1.519       .  S
C796        C797   1.404       .  A
C796        H801   1.083       .  S
C797        C798   1.418       .  A
C798        C799   1.517       .  S
C799        F803   1.384       .  S
C799        F804   1.380       .  S
C799        F805   1.384       .  S
C802        F806   1.383       .  S
C802        F807   1.382       .  S
C802        F808   1.385       .  S
C809        C810   1.408       .  A
C809        C814   1.417       .  A
C809        H816   1.083       .  S
C810        C811   1.418       .  A
C811        C812   1.408       .  A
C811        C818   1.512       .  S
C812        C813   1.404       .  A
C812        H817   1.083       .  S
C813        C814   1.419       .  A
C814        C815   1.516       .  S
C815        F819   1.384       .  S
C815        F820   1.383       .  S
C815        F821   1.382       .  S
C818        F822   1.383       .  S
C818        F823   1.384       .  S
C818        F824   1.385       .  S
C825        C826   1.398       .  A
C825        C830   1.402       .  A
C825        H832   1.085       .  S
C826        C827   1.417       .  A
C827        C828   1.409       .  A
C827        C834   1.517       .  S
C828        C829   1.404       .  A
C828        H833   1.084       .  S
C829        C830   1.421       .  A
C830        C831   1.519       .  S
C831        F835   1.383       .  S
C831        F836   1.381       .  S
C831        F837   1.383       .  S
C834        F838   1.384       .  S
C834        F839   1.381       .  S
C834        F840   1.384       .  S
C841        C842   1.401       .  A
C841        C846   1.407       .  A
C841        H848   1.084       .  S
C842        C843   1.409       .  A
C843        C844   1.403       .  A
C843        C850   1.517       .  S
C844        C845   1.408       .  A
C844        H849   1.083       .  S
C845        C846   1.417       .  A
C846        C847   1.510       .  S
C847        F851   1.384       .  S
C847        F852   1.377       .  S
C847        F853   1.381       .  S
C850        F854   1.384       .  S
C850        F855   1.382   1_554  S
C850        F856   1.385   1_554  S
C857        C858   1.402       .  A
C857        C862   1.409       .  A
C857        H864   1.083       .  S
C858        C859   1.421       .  A
C859        C860   1.411       .  A
C859        C866   1.520       .  S
C860        C861   1.406       .  A
C860        H865   1.083       .  S
C861        C862   1.422       .  A
C862        C863   1.518       .  S
C863        F867   1.385       .  S
C863        F868   1.382       .  S
C863        F869   1.383       .  S
C866        F870   1.384       .  S
C866        F871   1.381       .  S
C866        F872   1.385       .  S
C873        C874   1.403       .  A
C873        C878   1.411       .  A
C873        H880   1.083       .  S
C874        C875   1.420       .  A
C875        C876   1.405       .  A
C875        C882   1.518       .  S
C876        C877   1.400       .  A
C876        H881   1.083       .  S
C877        C878   1.423       .  A
C878        C879   1.520       .  S
C879        F883   1.384       .  S
C879        F884   1.384       .  S
C879        F885   1.383       .  S
C882        F886   1.382       .  S
C882        F887   1.384       .  S
C882        F888   1.384       .  S
C889        C890   1.404       .  A
C889        C894   1.406       .  A
C889        H896   1.084       .  S
C890        C891   1.412       .  A
C891        C892   1.405       .  A
C891        C898   1.520       .  S
C892        C893   1.409       .  A
C892        H897   1.083       .  S
C893        C894   1.418       .  A
C894        C895   1.521       .  S
C895        F899   1.385       .  S
C895        F900   1.384       .  S
C895        F901   1.381       .  S
C898        F902   1.384       .  S
C898        F903   1.382       .  S
C898        F904   1.384       .  S
C905        C906   1.406       .  A
C905        C910   1.408       .  A
C905        H912   1.083       .  S
C906        C907   1.415       .  A
C907        C908   1.407       .  A
C907        C914   1.520       .  S
C908        C909   1.408       .  A
C908        H913   1.083       .  S
C909        C910   1.416       .  A
C910        C911   1.519       .  S
C911        F915   1.385       .  S
C911        F916   1.384       .  S
C911        F917   1.382       .  S
C914        F918   1.384       .  S
C914        F919   1.382       .  S
C914        F920   1.385   1_556  S
C921        C922   1.400       .  A
C921        C926   1.406       .  A
C921        H928   1.084       .  S
C922        C923   1.416       .  A
C923        C924   1.404       .  A
C923        C930   1.517       .  S
C924        C925   1.403       .  A
C924        H929   1.085       .  S
C925        C926   1.420       .  A
C926        C927   1.516       .  S
C927        F931   1.386       .  S
C927        F932   1.384       .  S
C927        F933   1.382       .  S
C930        F934   1.383       .  S
C930        F935   1.382       .  S
C930        F936   1.384       .  S
C937        C938   1.405       .  A
C937        C942   1.407       .  A
C937        H944   1.083       .  S
C938        C939   1.424       .  A
C939        C940   1.407       .  A
C939        C946   1.517       .  S
C940        C941   1.398       .  A
C940        H945   1.084       .  S
C941        C942   1.415       .  A
C942        C943   1.516       .  S
C943        F947   1.385       .  S
C943        F948   1.384       .  S
C943        F949   1.382       .  S
C946        F950   1.383       .  S
C946        F951   1.381       .  S
C946        F952   1.385       .  S
C953        C954   1.402       .  A
C953        C958   1.410       .  A
C953        H960   1.083       .  S
C954        C955   1.418       .  A
C955        C956   1.410       .  A
C955        C962   1.517       .  S
C956        C957   1.403       .  A
C956        H961   1.083       .  S
C957        C958   1.418       .  A
C958        C959   1.516       .  S
C959        F963   1.385       .  S
C959        F964   1.380       .  S
C959        F965   1.383       .  S
C962        F966   1.383       .  S
C962        F967   1.381       .  S
C962        F968   1.384       .  S
C969        C970   1.403       .  A
C969        C974   1.410       .  A
C969        H976   1.083       .  S
C970        C971   1.420       .  A
C971        C972   1.409       .  A
C971        C978   1.517       .  S
C972        C973   1.403       .  A
C972        H977   1.083       .  S
C973        C974   1.421       .  A
C974        C975   1.518       .  S
C975        F979   1.385       .  S
C975        F980   1.384       .  S
C975        F981   1.381       .  S
C978        F982   1.381       .  S
C978        F983   1.384       .  S
C978        F984   1.385       .  S
C985        C986   1.406       .  A
C985        C990   1.407   1_455  A
C985        H992   1.083       .  S
C986        C987   1.416       .  A
C987        C988   1.408   1_455  A
C987        C994   1.520       .  S
C988        C989   1.405       .  A
C988        H993   1.084       .  S
C989        C990   1.411       .  A
C990        C991   1.517       .  S
C991        F995   1.384       .  S
C991        F996   1.382       .  S
C991        F997   1.384       .  S
C994        F998   1.381       .  S
C994        F999   1.384       .  S
C994       F1000   1.385       .  S
C1001      C1002   1.403       .  A
C1001      C1006   1.405       .  A
C1001      H1008   1.084       .  S
C1002      C1003   1.411       .  A
C1003      C1004   1.404       .  A
C1003      C1010   1.518       .  S
C1004      C1005   1.404       .  A
C1004      H1009   1.084       .  S
C1005      C1006   1.415       .  A
C1006      C1007   1.517       .  S
C1007      F1011   1.385       .  S
C1007      F1012   1.380       .  S
C1007      F1013   1.383       .  S
C1010      F1014   1.382       .  S
C1010      F1015   1.383       .  S
C1010      F1016   1.384       .  S
C1017      C1018   1.404       .  A
C1017      C1022   1.405       .  A
C1017      H1024   1.083       .  S
C1018      C1019   1.419       .  A
C1019      C1020   1.410       .  A
C1019      C1026   1.520       .  S
C1020      C1021   1.407       .  A
C1020      H1025   1.083       .  S
C1021      C1022   1.416       .  A
C1022      C1023   1.519       .  S
C1023      F1027   1.385       .  S
C1023      F1028   1.382       .  S
C1023      F1029   1.383       .  S
C1026      F1030   1.384       .  S
C1026      F1031   1.382       .  S
C1026      F1032   1.385       .  S
C1033      C1034   1.410       .  A
C1033      C1038   1.408       .  A
C1033      H1040   1.082       .  S
C1034      C1035   1.419       .  A
C1035      C1036   1.412       .  A
C1035      C1042   1.521       .  S
C1036      C1037   1.414       .  A
C1036      H1041   1.082       .  S
C1037      C1038   1.422       .  A
C1038      C1039   1.522       .  S
C1039      F1043   1.385       .  S
C1039      F1044   1.381       .  S
C1039      F1045   1.382       .  S
C1042      F1046   1.383       .  S
C1042      F1047   1.383       .  S
C1042      F1048   1.384       .  S
C1049      C1050   1.403       .  A
C1049      C1054   1.412   1_655  A
C1049      H1056   1.083       .  S
C1050      C1051   1.419       .  A
C1051      C1052   1.403   1_655  A
C1051      C1058   1.518       .  S
C1052      C1053   1.401       .  A
C1052      H1057   1.083       .  S
C1053      C1054   1.423       .  A
C1054      C1055   1.519   1_554  S
C1055      F1059   1.383       .  S
C1055      F1060   1.382       .  S
C1055      F1061   1.384   1_455  S
C1058      F1062   1.380       .  S
C1058      F1063   1.381       .  S
C1058      F1064   1.385   1_655  S
C1065      C1066   1.400       .  A
C1065      C1070   1.411       .  A
C1065      H1072   1.083       .  S
C1066      C1067   1.415       .  A
C1067      C1068   1.401       .  A
C1067      C1074   1.517   1_556  S
C1068      C1069   1.402       .  A
C1068      H1073   1.084       .  S
C1069      C1070   1.423       .  A
C1070      C1071   1.517       .  S
C1071      F1075   1.384       .  S
C1071      F1076   1.381       .  S
C1071      F1077   1.383       .  S
C1074      F1078   1.381       .  S
C1074      F1079   1.382   1_554  S
C1074      F1080   1.384       .  S
C1081      C1082   1.406       .  A
C1081      C1086   1.400   1_565  A
C1081      H1088   1.082       .  S
C1082      C1083   1.424       .  A
C1083      C1084   1.413   1_565  A
C1083      C1090   1.518       .  S
C1084      C1085   1.400       .  A
C1084      H1089   1.083       .  S
C1085      C1086   1.413       .  A
C1086      C1087   1.519       .  S
C1087      F1091   1.384   1_545  S
C1087      F1092   1.381       .  S
C1087      F1093   1.382       .  S
C1090      F1094   1.383       .  S
C1090      F1095   1.383       .  S
C1090      F1096   1.385   1_565  S
C1097      C1098   1.402       .  A
C1097      C1102   1.405       .  A
C1097      H1104   1.084       .  S
C1098      C1099   1.416       .  A
C1099      C1100   1.414       .  A
C1099      C1106   1.515       .  S
C1100      C1101   1.407       .  A
C1100      H1105   1.083       .  S
C1101      C1102   1.414       .  A
C1102      C1103   1.509       .  S
C1103      F1107   1.385   1_556  S
C1103      F1108   1.376       .  S
C1103      F1109   1.383       .  S
C1106      F1110   1.381       .  S
C1106      F1111   1.383       .  S
C1106      F1112   1.385       .  S
C1113      C1114   1.403       .  A
C1113      C1118   1.407       .  A
C1113      H1120   1.085       .  S
C1114      C1115   1.422       .  A
C1115      C1116   1.409       .  A
C1115      C1122   1.517   1_556  S
C1116      C1117   1.400       .  A
C1116      H1121   1.084       .  S
C1117      C1118   1.420       .  A
C1118      C1119   1.516       .  S
C1119      F1123   1.384       .  S
C1119      F1124   1.381       .  S
C1119      F1125   1.383       .  S
C1122      F1126   1.383       .  S
C1122      F1127   1.380       .  S
C1122      F1128   1.385       .  S
C1129      C1130   1.403       .  A
C1129      C1134   1.407   1_565  A
C1129      H1136   1.084       .  S
C1130      C1131   1.414       .  A
C1131      C1132   1.407   1_565  A
C1131      C1138   1.519       .  S
C1132      C1133   1.405       .  A
C1132      H1137   1.084       .  S
C1133      C1134   1.414       .  A
C1134      C1135   1.515       .  S
C1135      F1139   1.385       .  S
C1135      F1140   1.382       .  S
C1135      F1141   1.383       .  S
C1138      F1142   1.382       .  S
C1138      F1143   1.383       .  S
C1138      F1144   1.385       .  S
C1145      C1146   1.401       .  A
C1145      C1150   1.405       .  A
C1145      H1152   1.083       .  S
C1146      C1147   1.418       .  A
C1147      C1148   1.406       .  A
C1147      C1154   1.517       .  S
C1148      C1149   1.400       .  A
C1148      H1153   1.083       .  S
C1149      C1150   1.418       .  A
C1150      C1151   1.518       .  S
C1151      F1155   1.385       .  S
C1151      F1156   1.382       .  S
C1151      F1157   1.382       .  S
C1154      F1158   1.382       .  S
C1154      F1159   1.382       .  S
C1154      F1160   1.384       .  S
C1161      C1162   1.403       .  A
C1161      C1166   1.414       .  A
C1161      H1168   1.083       .  S
C1162      C1163   1.411       .  A
C1163      C1164   1.397       .  A
C1163      C1170   1.521       .  S
C1164      C1165   1.412       .  A
C1164      H1169   1.084       .  S
C1165      C1166   1.423       .  A
C1166      C1167   1.512       .  S
C1167      F1171   1.384       .  S
C1167      F1172   1.380       .  S
C1167      F1173   1.382       .  S
C1170      F1174   1.384       .  S
C1170      F1175   1.379       .  S
C1170      F1176   1.383       .  S
C1177      C1178   1.407       .  A
C1177      C1182   1.410       .  A
C1177      H1184   1.083       .  S
C1178      C1179   1.419       .  A
C1179      C1180   1.408       .  A
C1179      C1186   1.520       .  S
C1180      C1181   1.409       .  A
C1180      H1185   1.083       .  S
C1181      C1182   1.420       .  A
C1182      C1183   1.518       .  S
C1183      F1187   1.385       .  S
C1183      F1188   1.382       .  S
C1183      F1189   1.384       .  S
C1186      F1190   1.383       .  S
C1186      F1191   1.381       .  S
C1186      F1192   1.385       .  S
C1193      C1194   1.405       .  A
C1193      C1198   1.408       .  A
C1193      H1200   1.083       .  S
C1194      C1195   1.416       .  A
C1195      C1196   1.406       .  A
C1195      C1202   1.508       .  S
C1196      C1197   1.404       .  A
C1196      H1201   1.083       .  S
C1197      C1198   1.416       .  A
C1198      C1199   1.510       .  S
C1199      F1203   1.385       .  S
C1199      F1204   1.382       .  S
C1199      F1205   1.384       .  S
C1202      F1206   1.383       .  S
C1202      F1207   1.381       .  S
C1202      F1208   1.385       .  S
C1209      C1210   1.401       .  A
C1209      C1214   1.405   1_655  A
C1209      H1216   1.084       .  S
C1210      C1211   1.411       .  A
C1211      C1212   1.408   1_655  A
C1211      C1218   1.517       .  S
C1212      C1213   1.408       .  A
C1212      H1217   1.083       .  S
C1213      C1214   1.418       .  A
C1214      C1215   1.518       .  S
C1215      F1219   1.385       .  S
C1215      F1220   1.381       .  S
C1215      F1221   1.384       .  S
C1218      F1222   1.382       .  S
C1218      F1223   1.384       .  S
C1218      F1224   1.385       .  S
C1225      C1226   1.406       .  A
C1225      C1230   1.408   1_565  A
C1225      H1232   1.083       .  S
C1226      C1227   1.415       .  A
C1227      C1228   1.406   1_565  A
C1227      C1234   1.517       .  S
C1228      C1229   1.404       .  A
C1228      H1233   1.084       .  S
C1229      C1230   1.412       .  A
C1230      C1231   1.517       .  S
C1231      F1235   1.385       .  S
C1231      F1236   1.382       .  S
C1231      F1237   1.383       .  S
C1234      F1238   1.381       .  S
C1234      F1239   1.383       .  S
C1234      F1240   1.385       .  S
C1241      C1242   1.399       .  A
C1241      C1246   1.404       .  A
C1241      H1248   1.084       .  S
C1242      C1243   1.420       .  A
C1243      C1244   1.411       .  A
C1243      C1250   1.517       .  S
C1244      C1245   1.404       .  A
C1244      H1249   1.084       .  S
C1245      C1246   1.420       .  A
C1246      C1247   1.515       .  S
C1247      F1251   1.385       .  S
C1247      F1252   1.384       .  S
C1247      F1253   1.381       .  S
C1250      F1254   1.384       .  S
C1250      F1255   1.381       .  S
C1250      F1256   1.385       .  S
C1257      C1258   1.400       .  A
C1257      C1262   1.403       .  A
C1257      H1264   1.084       .  S
C1258      C1259   1.421       .  A
C1259      C1260   1.406       .  A
C1259      C1266   1.516       .  S
C1260      C1261   1.400       .  A
C1260      H1265   1.084       .  S
C1261      C1262   1.419       .  A
C1262      C1263   1.516       .  S
C1263      F1267   1.384       .  S
C1263      F1268   1.382       .  S
C1263      F1269   1.382       .  S
C1266      F1270   1.383       .  S
C1266      F1271   1.381       .  S
C1266      F1272   1.385       .  S
C1273      C1274   1.405       .  A
C1273      C1278   1.408   1_655  A
C1273      H1280   1.084       .  S
C1274      C1275   1.415       .  A
C1275      C1276   1.401   1_655  A
C1275      C1282   1.517       .  S
C1276      C1277   1.402       .  A
C1276      H1281   1.085       .  S
C1277      C1278   1.415       .  A
C1278      C1279   1.519       .  S
C1279      F1283   1.385   1_554  S
C1279      F1284   1.382       .  S
C1279      F1285   1.383       .  S
C1282      F1286   1.383       .  S
C1282      F1287   1.382       .  S
C1282      F1288   1.384       .  S
C1289      C1290   1.400       .  A
C1289      C1294   1.409   1_545  A
C1289      H1296   1.083       .  S
C1290      C1291   1.416       .  A
C1291      C1292   1.400   1_545  A
C1291      C1298   1.519       .  S
C1292      C1293   1.402       .  A
C1292      H1297   1.083       .  S
C1293      C1294   1.423       .  A
C1294      C1295   1.520       .  S
C1295      F1299   1.384       .  S
C1295      F1300   1.383       .  S
C1295      F1301   1.384       .  S
C1298      F1302   1.382       .  S
C1298      F1303   1.382       .  S
C1298      F1304   1.385   1_545  S
C1305      C1306   1.398       .  A
C1305      C1310   1.403       .  A
C1305      H1312   1.084       .  S
C1306      C1307   1.411       .  A
C1307      C1308   1.404       .  A
C1307      C1314   1.517       .  S
C1308      C1309   1.408       .  A
C1308      H1313   1.083       .  S
C1309      C1310   1.418       .  A
C1310      C1311   1.510       .  S
C1311      F1315   1.385       .  S
C1311      F1316   1.377       .  S
C1311      F1317   1.381       .  S
C1314      F1318   1.383       .  S
C1314      F1319   1.382       .  S
C1314      F1320   1.385       .  S
C1321      C1322   1.404       .  A
C1321      C1326   1.404       .  A
C1321      H1328   1.083       .  S
C1322      C1323   1.417       .  A
C1323      C1324   1.407       .  A
C1323      C1330   1.519       .  S
C1324      C1325   1.405       .  A
C1324      H1329   1.083       .  S
C1325      C1326   1.415       .  A
C1326      C1327   1.521       .  S
C1327      F1331   1.384   1_554  S
C1327      F1332   1.384       .  S
C1327      F1333   1.383       .  S
C1330      F1334   1.383       .  S
C1330      F1335   1.382       .  S
C1330      F1336   1.385       .  S
C1337      C1338   1.402       .  A
C1337      C1342   1.409       .  A
C1337      H1344   1.083       .  S
C1338      C1339   1.422       .  A
C1339      C1340   1.410       .  A
C1339      C1346   1.517       .  S
C1340      C1341   1.402       .  A
C1340      H1345   1.083       .  S
C1341      C1342   1.422       .  A
C1342      C1343   1.517       .  S
C1343      F1347   1.384       .  S
C1343      F1348   1.384       .  S
C1343      F1349   1.381       .  S
C1346      F1350   1.381       .  S
C1346      F1351   1.384   1_556  S
C1346      F1352   1.385       .  S
C1353      C1354   1.407       .  A
C1353      C1358   1.409       .  A
C1353      H1360   1.083       .  S
C1354      C1355   1.420       .  A
C1355      C1356   1.406       .  A
C1355      C1362   1.521       .  S
C1356      C1357   1.407       .  A
C1356      H1361   1.083       .  S
C1357      C1358   1.421       .  A
C1358      C1359   1.520       .  S
C1359      F1363   1.385       .  S
C1359      F1364   1.382       .  S
C1359      F1365   1.383       .  S
C1362      F1366   1.383       .  S
C1362      F1367   1.382       .  S
C1362      F1368   1.385       .  S
