geometry optimzed in LAMMPS
_audit_creation_date              2020-12-01 
_audit_creation_method            'lammps2cif' 
_symmetry_space_group_name_H-M    'P1' 
_symmetry_Int_Tables_number       1 
_symmetry_cell_setting            triclinic 
loop_ 
_symmetry_equiv_pos_as_xyz 
  x,y,z 
_cell_length_a                    37.29794187 
_cell_length_b                    37.27464625888128 
_cell_length_c                    37.18886163429826 
_cell_angle_alpha                 90.22238196452354 
_cell_angle_beta                  89.7151479834363 
_cell_angle_gamma                 89.99034816338343 
loop_ 
_atom_site_label 
_atom_site_type_symbol 
_atom_site_fract_x 
_atom_site_fract_y 
_atom_site_fract_z 
_atom_site_charge 
Fe1        Fe  0.77675498  0.82050655  0.61246990     1.65800
Fe2        Fe  0.72064422  0.85448172  0.55100724     1.73200
Fe3        Fe  0.78838565  0.79869843  0.52473701     1.54400
O4          O  0.83804971  0.81801949  0.54140560    -0.82500
O5          O  0.70326066  0.82164489  0.50897002    -0.80800
O6          O  0.83094632  0.81998118  0.60074199    -0.85000
O7          O  0.77533348  0.76578755  0.61002160    -0.79900
O8          O  0.78479162  0.84210325  0.48988853    -0.81600
O9          O  0.68756651  0.82514556  0.58467148    -0.84400
C10         C  0.78729175  0.74362823  0.58705727     0.96400
C11         C  0.85081874  0.82071061  0.57294774     1.03800
O12         O  0.76212059  0.82444823  0.56261111    -1.13400
O13         O  0.73009491  0.89179113  0.59230960    -0.75800
O14         O  0.78036258  0.87498778  0.61885386    -0.79300
O15         O  0.79558441  0.75231007  0.55505842    -0.80000
C16         C  0.75513708  0.89718911  0.61485529     0.95300
O17         O  0.72401923  0.81975758  0.63145725    -0.77900
O18         O  0.75188791  0.88486295  0.51638115    -0.83100
C19         C  0.71181765  0.79068022  0.49727127     0.97900
C20         C  0.77314577  0.87423952  0.49163209     1.03800
O21         O  0.74162819  0.77615017  0.50483681    -0.78800
C22         C  0.69319599  0.81658284  0.61716303     1.02100
Fe23       Fe  0.81264322  0.88815260  0.28527594     1.65800
Fe24       Fe  0.77954767  0.97317271  0.28793378     1.73200
Fe25       Fe  0.84122885  0.94920147  0.22591652     1.54400
O26         O  0.87947740  0.90865494  0.23329719    -0.82500
O27         O  0.75920326  0.98870213  0.23875378    -0.80800
O28         O  0.86796184  0.88584359  0.28642517    -0.85000
O29         O  0.81056547  0.86788000  0.23290729    -0.79900
O30         O  0.86881222  0.98400173  0.25895249    -0.81600
O31         O  0.73545613  0.93911630  0.29347970    -0.84400
C32         C  0.80611349  0.88156078  0.20172934     0.96400
C33         C  0.88743151  0.88742223  0.25861226     1.03800
O34         O  0.81077535  0.93671247  0.26683770    -1.13400
O35         O  0.79462018  0.96144621  0.33994186    -0.75800
O36         O  0.81283429  0.90435682  0.33857321    -0.79300
O37         O  0.81256339  0.91431900  0.19464694    -0.80000
C38         C  0.80394691  0.93274004  0.35557117     0.95300
O39         O  0.75813741  0.88394687  0.28765683    -0.77900
O40         O  0.82150900  0.01045871  0.28520390    -0.83100
C41         C  0.77689069  0.00006016  0.21203743     0.97900
C42         C  0.85511947  0.00906972  0.27801132     1.03800
O43         O  0.80945261  0.99137018  0.20726620    -0.78800
C44         C  0.73214809  0.90513989  0.29310622     1.02100
Fe45       Fe  0.11019691  0.78734335  0.67819432     1.65800
Fe46       Fe  0.02517249  0.79506959  0.70996271     1.73200
Fe47       Fe  0.04474389  0.73615062  0.64433496     1.54400
O48         O  0.08591576  0.74401173  0.60705569    -0.82500
O49         O  0.00849192  0.74508947  0.72796682    -0.80800
O50         O  0.11325530  0.79360134  0.62294912    -0.85000
O51         O  0.12572640  0.73356330  0.67490017    -0.79900
O52         O  0.01274478  0.77344503  0.61908363    -0.81600
O53         O  0.05947701  0.79643315  0.75477337    -0.84400
C54         C  0.11024107  0.70288268  0.67508244     0.96400
C55         C  0.10900224  0.76819236  0.60080304     1.03800
O56         O  0.06028188  0.77331976  0.67777605    -1.13400
O57         O  0.04016965  0.84670489  0.69565449    -0.75800
O58         O  0.09845549  0.84153017  0.68255227    -0.79300
O59         O  0.07685281  0.69882345  0.66947294    -0.80000
C60         C  0.07056749  0.86045535  0.68839926     0.95300
O61         O  0.11354728  0.78343380  0.73295952    -0.77900
O62         O  0.98672884  0.79637425  0.66818290    -0.83100
C63         C  0.99614634  0.71977044  0.70894531     0.97900
C64         C  0.98756174  0.79123130  0.63400823     1.03800
O65         O  0.00123038  0.71956242  0.67524500    -0.78800
C66         C  0.09270458  0.78978236  0.75923185     1.02100
Fe67       Fe  0.20567074  0.18697664  0.37753305     1.65800
Fe68       Fe  0.19906373  0.21801863  0.46340505     1.73200
Fe69       Fe  0.25847370  0.15323168  0.44143065     1.54400
O70         O  0.24844398  0.11564250  0.40117472    -0.82500
O71         O  0.24912227  0.23631550  0.48082209    -0.80800
O72         O  0.19864013  0.13196040  0.37466655    -0.85000
O73         O  0.25866894  0.18348933  0.35995196    -0.79900
O74         O  0.22212984  0.12829345  0.47488907    -0.81600
O75         O  0.19565606  0.26202215  0.42880797    -0.84400
C76         C  0.28992401  0.18321394  0.37396408     0.96400
C77         C  0.22334628  0.10927600  0.37918395     1.03800
O78         O  0.22087743  0.18658762  0.42728789    -1.13400
O79         O  0.14692018  0.20349339  0.44932714    -0.75800
O80         O  0.15181484  0.19144576  0.39066907    -0.79300
O81         O  0.29508818  0.17762664  0.40732183    -0.80000
C82         C  0.13296938  0.19692579  0.41880894     0.95300
O83         O  0.21014891  0.24156202  0.37405970    -0.77900
O84         O  0.19897296  0.17678611  0.50162429    -0.83100
C85         C  0.27466488  0.21716355  0.49266730     0.97900
C86         C  0.20460559  0.14294609  0.50044790     1.03800
O87         O  0.27695630  0.18420420  0.48429521    -0.78800
C88         C  0.20121655  0.26664700  0.39530667     1.02100
Fe89       Fe  0.17240404  0.12447579  0.71148626     1.65800
Fe90       Fe  0.14044822  0.06047590  0.76602571     1.73200
Fe91       Fe  0.20024013  0.03833793  0.70107106     1.54400
O92         O  0.18061390  0.05315138  0.65124920    -0.82500
O93         O  0.17358795  0.01921721  0.78303586    -0.80800
O94         O  0.17482671  0.11233413  0.65723764    -0.85000
O95         O  0.22739060  0.12655854  0.71374164    -0.79900
O96         O  0.15969793  0.00011364  0.70426917    -0.81600
O97         O  0.16635342  0.09522804  0.80082230    -0.84400
C98         C  0.25086112  0.10491118  0.70171862     0.96400
C99         C  0.17624594  0.08415950  0.63793856     1.03800
O100        O  0.17156783  0.07452575  0.72623834    -1.13400
O101        O  0.10225993  0.10001685  0.75710770    -0.75800
O102        O  0.11742188  0.12675353  0.70672711    -0.79300
O103        O  0.24419569  0.07226392  0.69418997    -0.80000
C104        C  0.09537362  0.12198229  0.73210434     0.95300
O105        O  0.17047955  0.14290592  0.76465712    -0.77900
O106        O  0.11323066  0.02547681  0.73231900    -0.83100
C107        C  0.20547880  0.00926877  0.77631855     0.97900
C108        C  0.12669162  0.00034802  0.71326069     1.03800
O109        O  0.22245363  0.01991666  0.74862713    -0.78800
C110        C  0.17146622  0.12859365  0.79576280     1.02100
Fe111      Fe  0.87182973  0.21890996  0.30571448     1.65800
Fe112      Fe  0.93440511  0.27333925  0.34153267     1.73200
Fe113      Fe  0.95923076  0.20823913  0.28294711     1.54400
O114        O  0.94427934  0.15936595  0.30412922    -0.82500
O115        O  0.97637549  0.29078278  0.30836437    -0.80800
O116        O  0.88473874  0.16485376  0.30457669    -0.85000
O117        O  0.87334687  0.22126305  0.25059684    -0.79900
O118        O  0.99653319  0.21335856  0.32443945    -0.81600
O119        O  0.90029467  0.30805244  0.31485048    -0.84400
C120        C  0.89518133  0.20652767  0.22893718     0.96400
C121        C  0.91308940  0.14591449  0.30614824     1.03800
O122        O  0.92169855  0.23352330  0.30986113    -1.13400
O123        O  0.89357629  0.26296235  0.37904430    -0.75800
O124        O  0.86481632  0.21444175  0.36047533    -0.79300
O125        O  0.92713132  0.19842627  0.23770523    -0.80000
C126        C  0.86973603  0.23889574  0.38357289     0.95300
O127        O  0.85333498  0.27174096  0.30631417    -0.77900
O128        O  0.96919141  0.24067786  0.37019622    -0.83100
C129        C  0.98725723  0.28344054  0.27663971     0.97900
C130        C  0.99519943  0.22237688  0.35751763     1.03800
O131        O  0.97715664  0.25542054  0.25993603    -0.78800
C132        C  0.86745520  0.30288726  0.30738514     1.02100
Fe133      Fe  0.71098285  0.31988997  0.61226233     1.65800
Fe134      Fe  0.69688642  0.29387696  0.52622275     1.73200
Fe135      Fe  0.76502932  0.35093761  0.54692310     1.54400
O136        O  0.75721283  0.38975416  0.58675613    -0.82500
O137        O  0.74309409  0.27027421  0.50541720    -0.80800
O138        O  0.70738728  0.37506373  0.61545006    -0.85000
O139        O  0.76364864  0.32092624  0.62948554    -0.79900
O140        O  0.73238247  0.37951575  0.51194277    -0.81600
O141        O  0.69047018  0.24930937  0.55938534    -0.84400
C142        C  0.79432998  0.31834221  0.61471852     0.96400
C143        C  0.73293334  0.39673383  0.60984176     1.03800
O144        O  0.72425139  0.32130625  0.56173715    -1.13400
O145        O  0.64756240  0.31437727  0.54400477    -0.75800
O146        O  0.65672835  0.31765230  0.60279429    -0.79300
O147        O  0.79938080  0.32405289  0.58134639    -0.80000
C148        C  0.63579359  0.31771597  0.57605691     0.95300
O149        O  0.71313013  0.26490122  0.61269404    -0.77900
O150        O  0.70001666  0.33506040  0.48861135    -0.83100
C151        C  0.77214905  0.28506411  0.49533961     0.97900
C152        C  0.71111342  0.36740461  0.48806696     1.03800
O153        O  0.78080465  0.31644377  0.50560124    -0.78800
C154        C  0.70008008  0.24185546  0.59126071     1.02100
Fe155      Fe  0.67240863  0.38682505  0.27771903     1.65800
Fe156      Fe  0.64534354  0.45043963  0.22037958     1.73200
Fe157      Fe  0.70648280  0.47134741  0.28414177     1.54400
O158        O  0.68948340  0.45770939  0.33597781    -0.82500
O159        O  0.67932696  0.49092615  0.20211230    -0.80800
O160        O  0.67360154  0.40029439  0.33134479    -0.85000
O161        O  0.72678798  0.38142687  0.27854663    -0.79900
O162        O  0.66594162  0.51043128  0.28209911    -0.81600
O163        O  0.67262093  0.41423626  0.18804699    -0.84400
C164        C  0.75290311  0.40191256  0.28554545     0.96400
C165        C  0.68092061  0.42780282  0.35011806     1.03800
O166        O  0.67502546  0.43624281  0.26118437    -1.13400
O167        O  0.60512576  0.41186060  0.22871563    -0.75800
O168        O  0.61722732  0.38708220  0.28059190    -0.79300
O169        O  0.74976758  0.43580910  0.28882293    -0.80000
C170        C  0.59651266  0.39092027  0.25420413     0.95300
O171        O  0.67310391  0.36710422  0.22505187    -0.77900
O172        O  0.61877811  0.48757741  0.25270196    -0.83100
C173        C  0.71184152  0.49928561  0.20741778     0.97900
C174        C  0.63313608  0.51199537  0.27212232     1.03800
O175        O  0.72822707  0.48839280  0.23518222    -0.78800
C176        C  0.67860701  0.38118963  0.19427553     1.02100
Fe177      Fe  0.30938869  0.62753127  0.71674026     1.65800
Fe178      Fe  0.27267196  0.54426054  0.70996687     1.73200
Fe179      Fe  0.34274240  0.55948685  0.76698140     1.54400
O180        O  0.38653974  0.58460143  0.74354113    -0.82500
O181        O  0.25789149  0.52282895  0.75934892    -0.80800
O182        O  0.36370382  0.63550832  0.72444026    -0.85000
O183        O  0.30049353  0.64311626  0.76921066    -0.79900
O184        O  0.35588203  0.51345000  0.73862505    -0.81600
O185        O  0.22943835  0.57928997  0.71429847    -0.84400
C186        C  0.31383479  0.63169443  0.79841333     0.96400
C187        C  0.39020313  0.61718571  0.73486490     1.03800
O188        O  0.30836861  0.57684564  0.73103706    -1.13400
O189        O  0.28383775  0.56315596  0.65862339    -0.75800
O190        O  0.31632054  0.61362626  0.66274206    -0.79300
O191        O  0.33243846  0.60312974  0.80060342    -0.80000
C192        C  0.30011794  0.58957505  0.64421169     0.95300
O193        O  0.25579720  0.63192282  0.70785215    -0.77900
O194        O  0.30973717  0.50366204  0.70204627    -0.83100
C195        C  0.27331816  0.51891587  0.78944987     0.97900
C196        C  0.33944107  0.49433660  0.71569146     1.03800
O197        O  0.30434331  0.53149000  0.79500566    -0.78800
C198        C  0.22812144  0.61263348  0.70809100     1.02100
Fe199      Fe  0.37098080  0.27431215  0.68759250     1.65800
Fe200      Fe  0.43892153  0.23095222  0.64643133     1.73200
Fe201      Fe  0.45595521  0.29561145  0.70921030     1.54400
O202        O  0.42500039  0.34238957  0.70516950    -0.82500
O203        O  0.47051940  0.20597155  0.68413012    -0.80800
O204        O  0.37589806  0.32776119  0.67443331    -0.85000
O205        O  0.37487663  0.28745209  0.74153486    -0.79900
O206        O  0.48353666  0.31045220  0.66321055    -0.81600
O207        O  0.39718655  0.19511015  0.65902229    -0.84400
C208        C  0.39891371  0.28872208  0.76549047     0.96400
C209        C  0.39544162  0.35084063  0.69024517     1.03800
O210        O  0.42217553  0.26679073  0.68134486    -1.13400
O211        O  0.40869686  0.25310267  0.60500400    -0.75800
O212        O  0.35801561  0.26236575  0.63449246    -0.79300
O213        O  0.43191353  0.28483708  0.75827230    -0.80000
C214        C  0.37496414  0.25778092  0.60508574     0.95300
O215        O  0.36364691  0.22139253  0.70145229    -0.77900
O216        O  0.48323273  0.26126520  0.62983090    -0.83100
C217        C  0.49105833  0.21876469  0.70812427     0.97900
C218        C  0.49598217  0.29210501  0.63723188     1.03800
O219        O  0.48966652  0.25164837  0.71774482    -0.78800
C220        C  0.37198386  0.19428469  0.68238646     1.02100
Fe221      Fe  0.61395324  0.72675055  0.31452703     1.65800
Fe222      Fe  0.53002154  0.71719621  0.28165360     1.73200
Fe223      Fe  0.54750558  0.77820767  0.34702766     1.54400
O224        O  0.58679984  0.76792650  0.38641734    -0.82500
O225        O  0.51271015  0.76646387  0.26180258    -0.80800
O226        O  0.61355489  0.71814669  0.36888090    -0.85000
O227        O  0.63062761  0.77998642  0.32040875    -0.79900
O228        O  0.51235138  0.74238739  0.37086569    -0.81600
O229        O  0.56715863  0.71275628  0.23901377    -0.84400
C230        C  0.61559566  0.81077342  0.31986907     0.96400
C231        C  0.60985912  0.74321164  0.39138090     1.03800
O232        O  0.56387736  0.74056769  0.31403468    -1.13400
O233        O  0.54452199  0.66566243  0.29750129    -0.75800
O234        O  0.60281490  0.67272042  0.30823213    -0.79300
O235        O  0.58200587  0.81502908  0.32398958    -0.80000
C236        C  0.57575489  0.65285252  0.30243914     0.95300
O237        O  0.61943771  0.73278762  0.26007305    -0.77900
O238        O  0.48944899  0.71748858  0.32131787    -0.83100
C239        C  0.49970037  0.79262217  0.27968472     0.97900
C240        C  0.48784398  0.72460674  0.35501875     1.03800
O241        O  0.50667158  0.79665378  0.31297177    -0.78800
C242        C  0.60042964  0.71987590  0.23505749     1.02100
Fe243      Fe  0.27241209  0.68275671  0.37532512     1.65800
Fe244      Fe  0.22123605  0.65278200  0.44291125     1.73200
Fe245      Fe  0.28428145  0.71572234  0.45951088     1.54400
O246        O  0.33481222  0.69780844  0.44384139    -0.82500
O247        O  0.20505986  0.68712563  0.48439232    -0.80800
O248        O  0.32690874  0.68765334  0.38529904    -0.85000
O249        O  0.26808515  0.73740500  0.37021034    -0.79900
O250        O  0.28351561  0.67652458  0.50007509    -0.81600
O251        O  0.18456177  0.67697667  0.40931922    -0.84400
C252        C  0.28109091  0.76220737  0.38958113     0.96400
C253        C  0.34718471  0.69283996  0.41225057     1.03800
O254        O  0.25951245  0.68414245  0.42583146    -1.13400
O255        O  0.22916716  0.61318463  0.40341832    -0.75800
O256        O  0.27901521  0.62787586  0.37552975    -0.79300
O257        O  0.28895542  0.75791935  0.42262054    -0.80000
C258        C  0.25341806  0.60625246  0.38026433     0.95300
O259        O  0.21864765  0.67856218  0.35968076    -0.77900
O260        O  0.25686658  0.62788573  0.47706634    -0.83100
C261        C  0.20949024  0.72033026  0.49087072     0.97900
C262        C  0.27489561  0.64333669  0.50168131     1.03800
O263        O  0.23595414  0.73739052  0.47770601    -0.78800
C264        C  0.18816831  0.68028995  0.37548723     1.02100
Fe265      Fe  0.80290154  0.63019171  0.76302019     1.65800
Fe266      Fe  0.83962383  0.56144253  0.71763797     1.73200
Fe267      Fe  0.77772052  0.54600419  0.78277364     1.54400
O268        O  0.78413578  0.57591004  0.83017894    -0.82500
O269        O  0.79942082  0.53385377  0.69202174    -0.80800
O270        O  0.81737989  0.62354294  0.81587214    -0.85000
O271        O  0.74904581  0.62836829  0.77767515    -0.79900
O272        O  0.82244369  0.51703236  0.79661256    -0.81600
O273        O  0.82993332  0.60459147  0.68357098    -0.84400
C274        C  0.72413230  0.60515880  0.77856099     0.96400
C275        C  0.80117939  0.60431849  0.83891750     1.03800
O276        O  0.80639754  0.57905340  0.75432775    -1.13400
O277        O  0.88236991  0.58785626  0.74128861    -0.75800
O278        O  0.85630018  0.64050389  0.75032928    -0.79300
O279        O  0.72988122  0.57212154  0.77291696    -0.80000
C280        C  0.88433395  0.62149131  0.74629447     0.95300
O281        O  0.78841647  0.63868096  0.71036643    -0.77900
O282        O  0.85314693  0.51526728  0.74536036    -0.83100
C283        C  0.77504068  0.51353686  0.70430292     0.97900
C284        C  0.84561255  0.50271028  0.77614203     1.03800
O285        O  0.76746648  0.51325151  0.73785505    -0.78800
C286        C  0.80689409  0.62977946  0.68295393     1.02100
Fe287      Fe  0.87369398  0.28889396  0.81120049     1.65800
Fe288      Fe  0.95538122  0.30043111  0.77609850     1.73200
Fe289      Fe  0.94167401  0.24117493  0.84508561     1.54400
O290        O  0.91582371  0.26387043  0.88973597    -0.82500
O291        O  0.98513540  0.25412193  0.76560358    -0.80800
O292        O  0.86438094  0.27763126  0.86467740    -0.85000
O293        O  0.86050963  0.23698640  0.79900033    -0.79900
O294        O  0.98770790  0.27132924  0.85638592    -0.81600
O295        O  0.92401383  0.28707071  0.73261836    -0.84400
C296        C  0.87065049  0.20850883  0.81471717     0.96400
C297        C  0.88234831  0.26965586  0.89223945     1.03800
O298        O  0.92397195  0.27648693  0.81084526    -1.13400
O299        O  0.92794888  0.34952419  0.78113062    -0.75800
O300        O  0.88729499  0.34058959  0.82399642    -0.79300
O301        O  0.89787380  0.20713446  0.83543504    -0.80000
C302        C  0.90328428  0.36115132  0.80207186     0.95300
O303        O  0.87163202  0.30151381  0.75699867    -0.77900
O304        O  0.99004560  0.31585741  0.81607006    -0.83100
C305        C  0.98569464  0.22208096  0.77725976     0.97900
C306        C  0.00248952  0.29922480  0.84302484     1.03800
O307        O  0.96868407  0.21359542  0.80543736    -0.78800
C308        C  0.89120598  0.29502148  0.72979668     1.02100
Fe309      Fe  0.77869877  0.68503284  0.11361190     1.65800
Fe310      Fe  0.78314965  0.72611919  0.03248167     1.73200
Fe311      Fe  0.72388154  0.65844440  0.04657496     1.54400
O312        O  0.73400506  0.61618226  0.08270331    -0.82500
O313        O  0.73313502  0.74489682  0.01593051    -0.80800
O314        O  0.78392877  0.63005027  0.11022794    -0.85000
O315        O  0.72592613  0.68206497  0.13173590    -0.79900
O316        O  0.75744961  0.63815285  0.00627301    -0.81600
O317        O  0.78186666  0.76649870  0.07052029    -0.84400
C318        C  0.69465717  0.68399367  0.11797631     0.96400
C319        C  0.75816101  0.60868527  0.10552142     1.03800
O320        O  0.76243809  0.68985637  0.06413259    -1.13400
O321        O  0.83591717  0.71286766  0.04605735    -0.75800
O322        O  0.83242132  0.68909390  0.10080784    -0.79300
O323        O  0.68887183  0.67969327  0.08453146    -0.80000
C324        C  0.85064281  0.70058102  0.07431382     0.95300
O325        O  0.77637598  0.73900972  0.12309049    -0.77900
O326        O  0.78561676  0.68912628  0.99097749    -0.83100
C327        C  0.70663674  0.72746791  0.00374901     0.97900
C328        C  0.77588114  0.65703960  0.98410669     1.03800
O329        O  0.70402741  0.69404871  0.00897222    -0.78800
C330        C  0.77857901  0.76725199  0.10441949     1.02100
Fe331      Fe  0.18093628  0.38135979  0.21757494     1.65800
Fe332      Fe  0.20230482  0.46794887  0.20302613     1.73200
Fe333      Fe  0.14094008  0.44686634  0.26652562     1.54400
O334        O  0.10424965  0.40559736  0.25656339    -0.82500
O335        O  0.22351666  0.48660379  0.25122009    -0.80800
O336        O  0.12655442  0.37234011  0.21225653    -0.85000
O337        O  0.17926885  0.36662293  0.27116852    -0.79900
O338        O  0.11404212  0.47977151  0.23067857    -0.81600
O339        O  0.24776633  0.43604012  0.19524160    -0.84400
C340        C  0.17556021  0.38248806  0.30131998     0.96400
C341        C  0.10180173  0.37939936  0.23464289     1.03800
O342        O  0.17462586  0.43182512  0.22895987    -1.13400
O343        O  0.18248971  0.45026866  0.15379773    -0.75800
O344        O  0.18353554  0.39112972  0.16269748    -0.79300
O345        O  0.16551626  0.41490692  0.30442365    -0.80000
C346        C  0.18090099  0.41816485  0.14197033     0.95300
O347        O  0.23584054  0.38421187  0.22194297    -0.77900
O348        O  0.16130370  0.50593488  0.20555247    -0.83100
C349        C  0.20616473  0.49766617  0.27870205     0.97900
C350        C  0.12789479  0.50521270  0.21265215     1.03800
O351        O  0.17334384  0.48942985  0.28367141    -0.78800
C352        C  0.25721140  0.40513756  0.20584990     1.02100
Fe353      Fe  0.11301620  0.71820669  0.18271899     1.65800
Fe354      Fe  0.04976923  0.77401912  0.15059537     1.73200
Fe355      Fe  0.02589125  0.70884485  0.20911400     1.54400
O356        O  0.04100272  0.65852068  0.19008180    -0.82500
O357        O  0.00742257  0.79112420  0.18309328    -0.80800
O358        O  0.10010146  0.66390479  0.18196937    -0.85000
O359        O  0.11372620  0.71764229  0.23781665    -0.79900
O360        O  0.98897337  0.71241474  0.16667977    -0.81600
O361        O  0.08354106  0.80762392  0.17860106    -0.84400
C362        C  0.09165470  0.70640356  0.26116696     0.96400
C363        C  0.07185280  0.64484189  0.18477714     1.03800
O364        O  0.06300632  0.73340319  0.18101833    -1.13400
O365        O  0.09053175  0.76618150  0.11277482    -0.75800
O366        O  0.11908688  0.71655935  0.12737667    -0.79300
O367        O  0.05853987  0.70123677  0.25447279    -0.80000
C368        C  0.11444531  0.74275776  0.10634826     0.95300
O369        O  0.13096499  0.77125712  0.18484704    -0.77900
O370        O  0.01543637  0.74168171  0.12144934    -0.83100
C371        C  0.99725777  0.78493359  0.21510156     0.97900
C372        C  0.98982199  0.72279909  0.13391522     1.03800
O373        O  0.00724141  0.75684511  0.23160906    -0.78800
C374        C  0.11638968  0.80224956  0.18573743     1.02100
Fe375      Fe  0.22095178  0.32177319  0.87189347     1.65800
Fe376      Fe  0.26489358  0.35504533  0.94293702     1.73200
Fe377      Fe  0.19831650  0.29373315  0.95451170     1.54400
O378        O  0.15221991  0.30407864  0.92364073    -0.82500
O379        O  0.28817376  0.31473255  0.97218108    -0.80800
O380        O  0.16947034  0.33998058  0.87890994    -0.85000
O381        O  0.20239735  0.26919919  0.87086188    -0.79900
O382        O  0.18489110  0.33733230  0.98612837    -0.81600
O383        O  0.30057843  0.34296455  0.90054994    -0.84400
C384        C  0.20111302  0.24297074  0.89246452     0.96400
C385        C  0.14514204  0.32384642  0.89649467     1.03800
O386        O  0.22842866  0.32301928  0.92346983    -1.13400
O387        O  0.24406371  0.39888636  0.91604001    -0.75800
O388        O  0.23763303  0.37391278  0.86262551    -0.79300
O389        O  0.20738158  0.24678548  0.92572508    -0.80000
C390        C  0.24062520  0.40153519  0.88229514     0.95300
O391        O  0.27251610  0.30413517  0.86420426    -0.77900
O392        O  0.23450963  0.36987269  0.98786011    -0.83100
C393        C  0.27491188  0.28928013  0.99050543     0.97900
C394        C  0.20345986  0.36220324  0.99993586     1.03800
O395        O  0.24191044  0.28015120  0.98782543    -0.78800
C396        C  0.30071664  0.32012797  0.87477246     1.02100
Fe397      Fe  0.61564358  0.78072674  0.81019978     1.65800
Fe398      Fe  0.54682393  0.73592221  0.84851463     1.73200
Fe399      Fe  0.53121323  0.79351890  0.77879640     1.54400
O400        O  0.55870087  0.84274993  0.78180303    -0.82500
O401        O  0.51764624  0.70831943  0.81078983    -0.80800
O402        O  0.60745746  0.83539997  0.81599018    -0.85000
O403        O  0.61608093  0.78640002  0.75573914    -0.79900
O404        O  0.49714252  0.81003257  0.82088918    -0.81600
O405        O  0.58752827  0.69917355  0.83824933    -0.84400
C406        C  0.59533813  0.78191547  0.72936868     0.96400
C407        C  0.58664973  0.85500496  0.79739095     1.03800
O408        O  0.56434901  0.77038062  0.81277813    -1.13400
O409        O  0.57503007  0.75877319  0.89093819    -0.75800
O410        O  0.62536557  0.77523485  0.86453843    -0.79300
O411        O  0.56159338  0.77924544  0.73344402    -0.80000
C412        C  0.60777954  0.76770907  0.89271165     0.95300
O413        O  0.62658201  0.72730852  0.80245002    -0.77900
O414        O  0.50352960  0.76796702  0.86223225    -0.83100
C415        C  0.50056683  0.71538156  0.78244710     0.97900
C416        C  0.48811614  0.79614878  0.85086763     1.03800
O417        O  0.50076532  0.74700274  0.76964339    -0.78800
C418        C  0.61438729  0.69914605  0.81710984     1.02100
Fe419      Fe  0.27354180  0.82126295  0.87494650     1.65800
Fe420      Fe  0.28745725  0.79679651  0.96175418     1.73200
Fe421      Fe  0.21976576  0.85411061  0.94072583     1.54400
O422        O  0.22616033  0.89199660  0.90006301    -0.82500
O423        O  0.24106263  0.77398020  0.98349158    -0.80800
O424        O  0.27399386  0.87600823  0.86854050    -0.85000
O425        O  0.22029481  0.81779691  0.85911150    -0.79900
O426        O  0.25293817  0.88331537  0.97526418    -0.81600
O427        O  0.29452808  0.75131359  0.92965652    -0.84400
C428        C  0.18962170  0.81710913  0.87433653     0.96400
C429        C  0.24838405  0.89739143  0.87468986     1.03800
O430        O  0.26033339  0.82382629  0.92573858    -1.13400
O431        O  0.33665107  0.81705905  0.94342844    -0.75800
O432        O  0.32806895  0.82357098  0.88465073    -0.79300
O433        O  0.18491349  0.82626302  0.90710711    -0.80000
C434        C  0.34867020  0.82260175  0.91177887     0.95300
O435        O  0.27529537  0.76638074  0.87507987    -0.77900
O436        O  0.28448265  0.83845289  0.99876379    -0.83100
C437        C  0.21255474  0.78982586  0.99389245     0.97900
C438        C  0.27367534  0.87083174  0.99943816     1.03800
O439        O  0.20448126  0.82104493  0.98302024    -0.78800
C440        C  0.28780208  0.74379888  0.89703897     1.02100
Fe441      Fe  0.68048192  0.12636922  0.77218978     1.65800
Fe442      Fe  0.70973985  0.04181667  0.78622750     1.73200
Fe443      Fe  0.65060539  0.05963475  0.71926539     1.54400
O444        O  0.61013384  0.09785831  0.72827256    -0.82500
O445        O  0.73462720  0.02358647  0.73954153    -0.80800
O446        O  0.62594096  0.12814776  0.77704864    -0.85000
O447        O  0.67893704  0.14310414  0.71879030    -0.79900
O448        O  0.62445433  0.02246838  0.75150708    -0.81600
O449        O  0.75185309  0.07820751  0.79475330    -0.84400
C450        C  0.68004452  0.12780894  0.68815227     0.96400
C451        C  0.60431134  0.12218267  0.75176954     1.03800
O452        O  0.68030600  0.07586747  0.75934120    -1.13400
O453        O  0.68748316  0.05706274  0.83519551    -0.75800
O454        O  0.68253153  0.11593171  0.82678714    -0.79300
O455        O  0.67517311  0.09442132  0.68397954    -0.80000
C456        C  0.68397185  0.08880713  0.84734218     0.95300
O457        O  0.73502358  0.12935005  0.76901440    -0.77900
O458        O  0.67138651  0.00123561  0.78201948    -0.83100
C459        C  0.71929408  0.01233144  0.71117149     0.97900
C460        C  0.63944715  0.99829775  0.77031462     1.03800
O461        O  0.68736948  0.02104138  0.70316997    -0.78800
C462        C  0.75784005  0.11050235  0.78539827     1.02100
Fe463      Fe  0.37059987  0.22697596  0.17943303     1.65800
Fe464      Fe  0.45487590  0.21696803  0.21132565     1.73200
Fe465      Fe  0.43802564  0.27632715  0.14533570     1.54400
O466        O  0.39855079  0.26661898  0.10618703    -0.82500
O467        O  0.47030810  0.26677845  0.23138922    -0.80800
O468        O  0.36774798  0.21964589  0.12487539    -0.85000
O469        O  0.35500138  0.28047885  0.17578646    -0.79900
O470        O  0.47311780  0.23959371  0.12199663    -0.81600
O471        O  0.41832589  0.21116406  0.25393711    -0.84400
C472        C  0.37109893  0.31065281  0.17503721     0.96400
C473        C  0.37334097  0.24394850  0.10203824     1.03800
O474        O  0.42097194  0.23967351  0.17865608    -1.13400
O475        O  0.44066334  0.16545636  0.19465275    -0.75800
O476        O  0.38209118  0.17268891  0.18397649    -0.79300
O477        O  0.40431266  0.31398708  0.16808702    -0.80000
C478        C  0.40928532  0.15282062  0.18949780     0.95300
O479        O  0.36651713  0.23253977  0.23400546    -0.77900
O480        O  0.49631888  0.21843564  0.17260123    -0.83100
C481        C  0.48392143  0.29217929  0.21312482     0.97900
C482        C  0.49849286  0.22402705  0.13877131     1.03800
O483        O  0.47867853  0.29452275  0.17941502    -0.78800
C484        C  0.38527289  0.21845742  0.25834833     1.02100
Fe485      Fe  0.71798871  0.18859356  0.11576429     1.65800
Fe486      Fe  0.76501521  0.15271497  0.04718606     1.73200
Fe487      Fe  0.70513605  0.21868271  0.03109809     1.54400
O488        O  0.65394708  0.20324551  0.04923943    -0.82500
O489        O  0.78240168  0.18556537  0.00497263    -0.80800
O490        O  0.66340358  0.19586023  0.10786840    -0.85000
O491        O  0.72514912  0.24270698  0.11775898    -0.79900
O492        O  0.70339766  0.17890085  0.99112805    -0.81600
O493        O  0.80437435  0.17506640  0.07934359    -0.84400
C494        C  0.71484138  0.26812550  0.09778456     0.96400
C495        C  0.64222918  0.19929287  0.08134839     1.03800
O496        O  0.72907358  0.18674758  0.06480742    -1.13400
O497        O  0.75541707  0.11443673  0.08754360    -0.75800
O498        O  0.70897547  0.13421819  0.11885397    -0.79300
O499        O  0.70423299  0.26266374  0.06585228    -0.80000
C500        C  0.73254019  0.11057968  0.11278199     0.95300
O501        O  0.77198473  0.18247019  0.12959718    -0.77900
O502        O  0.72715023  0.12924599  0.01408381    -0.83100
C503        C  0.78045482  0.21914568  0.99929697     0.97900
C504        C  0.71003382  0.14532396  0.98935775     1.03800
O505        O  0.75442438  0.23734746  0.01194836    -0.78800
C506        C  0.80201297  0.18075713  0.11298561     1.02100
Fe507      Fe  0.31053447  0.88568619  0.21356752     1.65800
Fe508      Fe  0.34055283  0.95086515  0.26842986     1.73200
Fe509      Fe  0.27789610  0.97021244  0.20558849     1.54400
O510        O  0.29562504  0.95671096  0.15434926    -0.82500
O511        O  0.30558430  0.99078856  0.28715709    -0.80800
O512        O  0.30537353  0.89799464  0.15924632    -0.85000
O513        O  0.25599444  0.88078788  0.21883130    -0.79900
O514        O  0.31731905  0.01053612  0.20721577    -0.81600
O515        O  0.31678081  0.91453015  0.30345182    -0.84400
C516        C  0.23061030  0.90086921  0.20876045     0.96400
C517        C  0.30107449  0.92606735  0.14029328     1.03800
O518        O  0.30958332  0.93562730  0.22889874    -1.13400
O519        O  0.38084795  0.91275030  0.25736544    -0.75800
O520        O  0.36578668  0.88504844  0.20719573    -0.79300
O521        O  0.23507250  0.93384700  0.20082918    -0.80000
C522        C  0.38799243  0.89034936  0.23233588     0.95300
O523        O  0.31447192  0.86747940  0.26613386    -0.77900
O524        O  0.36527857  0.98806235  0.23525986    -0.83100
C525        C  0.27291513  0.99880330  0.28168740     0.97900
C526        C  0.35016701  0.01252460  0.21681148     1.03800
O527        O  0.25636538  0.98694066  0.25439034    -0.78800
C528        C  0.31297725  0.88107798  0.29763018     1.02100
C529        C  0.37071364  0.05997410  0.17267483    -0.02700
C530        C  0.37083441  0.04569338  0.20788180     0.07000
C531        C  0.38862231  0.06485904  0.23543969    -0.02800
C532        C  0.40500285  0.09819810  0.22812036    -0.02800
C533        C  0.40235345  0.11372633  0.19363714     0.07100
C534        C  0.38581593  0.09409288  0.16579665    -0.03000
Br535      Br  0.38353425  0.11450472  0.11827381    -0.01500
Br536      Br  0.35013140  0.03279810  0.13364726    -0.01600
Br537      Br  0.42802203  0.12416794  0.26665962    -0.01600
Br538      Br  0.38694314  0.04793963  0.28451089    -0.01600
C539        C  0.54576842  0.23383211  0.08961347    -0.02700
C540        C  0.53255247  0.21350614  0.11914459     0.07000
C541        C  0.55368731  0.18431189  0.13143916    -0.02800
C542        C  0.58834574  0.17801142  0.11704844    -0.02800
C543        C  0.60265033  0.20023935  0.08971107     0.07100
C544        C  0.58004861  0.22661353  0.07452918    -0.03000
Br545      Br  0.59621100  0.25443785  0.03385909    -0.01500
Br546      Br  0.51913467  0.27424466  0.07106278    -0.01600
Br547      Br  0.61589299  0.13766232  0.13440290    -0.01600
Br548      Br  0.53562288  0.15189596  0.16785964    -0.01600
C549        C  0.66754449  0.13426659  0.93749534    -0.02700
C550        C  0.69933647  0.12515749  0.95614974     0.07000
C551        C  0.72279795  0.09933681  0.94063169    -0.02800
C552        C  0.71525459  0.08414596  0.90665071    -0.02800
C553        C  0.68522798  0.09578406  0.88679063     0.07100
C554        C  0.66102065  0.12027548  0.90278269    -0.03000
Br555      Br  0.61926461  0.13568930  0.87642234    -0.01500
Br556      Br  0.63253063  0.16619680  0.95893685    -0.01600
Br557      Br  0.74904525  0.05065397  0.88556279    -0.01600
Br558      Br  0.76813474  0.08771933  0.96291654    -0.01600
C559        C  0.27067822  0.93482439  0.08035377    -0.02700
C560        C  0.30007154  0.92164944  0.10035059     0.07000
C561        C  0.32483269  0.89870584  0.08309808    -0.02800
C562        C  0.31836991  0.88626150  0.04787190    -0.02800
C563        C  0.28512148  0.89338433  0.03086461     0.07100
C564        C  0.26166888  0.91869455  0.04708996    -0.03000
Br565      Br  0.21455968  0.92756345  0.02756874    -0.01500
Br566      Br  0.24031977  0.97239712  0.09965367    -0.01600
Br567      Br  0.35562708  0.85943247  0.02338519    -0.01600
Br568      Br  0.36777007  0.88402916  0.10793604    -0.01600
C569        C  0.61845137  0.90024468  0.75956184    -0.02700
C570        C  0.59748005  0.89271699  0.79030618     0.07000
C571        C  0.58781595  0.92111327  0.81358677    -0.02800
C572        C  0.60071195  0.95628243  0.80701480    -0.02800
C573        C  0.62110612  0.96350050  0.77580942     0.07100
C574        C  0.62828346  0.93556960  0.75131961    -0.03000
Br575      Br  0.65156426  0.94541063  0.70596230    -0.01500
Br576      Br  0.63721296  0.86232555  0.72994936    -0.01600
Br577      Br  0.59115916  0.99444436  0.84070043    -0.01600
Br578      Br  0.55772184  0.91145997  0.85458457    -0.01600
C579        C  0.43520163  0.83970502  0.86008592    -0.02700
C580        C  0.45713697  0.81129320  0.87298633     0.07000
C581        C  0.44712552  0.79555920  0.90650058    -0.02800
C582        C  0.41270509  0.80162942  0.92156576    -0.02800
C583        C  0.38832680  0.82510087  0.90456306     0.07100
C584        C  0.40121605  0.84645508  0.87594208    -0.03000
Br585      Br  0.37221970  0.88579370  0.85879205    -0.01500
Br586      Br  0.45109076  0.87091234  0.82177864    -0.01600
Br587      Br  0.39832039  0.77438198  0.96343399    -0.01600
Br588      Br  0.48013298  0.76631902  0.93382806    -0.01600
C589        C  0.33598902  0.26578409  0.00950125    -0.02700
C590        C  0.29897550  0.27119796  0.01723120     0.07000
C591        C  0.28622213  0.26290812  0.05217802    -0.02800
C592        C  0.31022203  0.25144374  0.07912851    -0.02800
C593        C  0.34747665  0.24838966  0.07179322     0.07100
C594        C  0.35981850  0.25414676  0.03650855    -0.03000
Br595      Br  0.40955846  0.24496382  0.02512297    -0.01500
Br596      Br  0.35517515  0.27466663  0.96211582    -0.01600
Br597      Br  0.29177125  0.24357050  0.12718882    -0.01600
Br598      Br  0.23655708  0.27109901  0.06521400    -0.01600
C599        C  0.15761456  0.84859889  0.16253249    -0.02700
C600        C  0.13977420  0.83340650  0.19207744     0.07000
C601        C  0.14767729  0.84537808  0.22710044    -0.02800
C602        C  0.17505947  0.87094955  0.23254254    -0.02800
C603        C  0.19549674  0.88334005  0.20310409     0.07100
C604        C  0.18618761  0.87233838  0.16809641    -0.03000
Br605      Br  0.21545039  0.88525735  0.12780674    -0.01500
Br606      Br  0.14418919  0.83536598  0.11422734    -0.01600
Br607      Br  0.18537823  0.88819829  0.28016881    -0.01600
Br608      Br  0.12203697  0.82564532  0.26738346    -0.01600
C609        C  0.12635790  0.76134136  0.04194142    -0.02700
C610        C  0.13942155  0.74839952  0.07511197     0.07000
C611        C  0.17710286  0.74633633  0.08009983    -0.02800
C612        C  0.20097929  0.75923464  0.05340790    -0.02800
C613        C  0.18782411  0.77239473  0.02043534     0.07100
C614        C  0.15035499  0.77239115  0.01458484    -0.03000
Br615      Br  0.13150847  0.78755184  0.96880594    -0.01500
Br616      Br  0.07532899  0.76467950  0.03379462    -0.01600
Br617      Br  0.25148579  0.76316985  0.06417350    -0.01600
Br618      Br  0.19678803  0.72928168  0.12491271    -0.01600
C619        C  0.20210810  0.41630168  0.04152511    -0.02700
C620        C  0.18944562  0.38151776  0.03265619     0.07000
C621        C  0.16579399  0.36426616  0.05724131    -0.02800
C622        C  0.15901455  0.37961452  0.09129561    -0.02800
C623        C  0.17769576  0.41060573  0.10257393     0.07100
C624        C  0.19747512  0.43021006  0.07667103    -0.03000
Br625      Br  0.22160977  0.47429106  0.08944734    -0.01500
Br626      Br  0.22490678  0.44585158  0.00541800    -0.01600
Br627      Br  0.12359638  0.35799648  0.12270175    -0.01600
Br628      Br  0.14382102  0.31829033  0.04690715    -0.01600
C629        C  0.07883227  0.55139130  0.22331434    -0.02700
C630        C  0.10549861  0.53626284  0.20060530     0.07000
C631        C  0.11364961  0.55370883  0.16777626    -0.02800
C632        C  0.10008414  0.58829717  0.16074074    -0.02800
C633        C  0.07636260  0.60500226  0.18524193     0.07100
C634        C  0.06325518  0.58489718  0.21479243    -0.03000
Br635      Br  0.02756515  0.60503534  0.24693269    -0.01500
Br636      Br  0.06677712  0.52941665  0.26883313    -0.01600
Br637      Br  0.11462899  0.61325386  0.11766502    -0.01600
Br638      Br  0.14341908  0.53043717  0.13199222    -0.01600
C639        C  0.32772513  0.35555730  0.15310493    -0.02700
C640        C  0.34926528  0.34289920  0.18116337     0.07000
C641        C  0.34580812  0.35779917  0.21584608    -0.02800
C642        C  0.31799460  0.38242155  0.22314938    -0.02800
C643        C  0.29301668  0.39091900  0.19621669     0.07100
C644        C  0.29935114  0.37915433  0.16065793    -0.03000
Br645      Br  0.26767555  0.39253842  0.12250236    -0.01500
Br646      Br  0.33617050  0.33907744  0.10456035    -0.01600
Br647      Br  0.31427097  0.40507090  0.26946661    -0.01600
Br648      Br  0.37776592  0.34282774  0.25351240    -0.01600
C649        C  0.90978652  0.73362619  0.07117163    -0.02700
C650        C  0.89051292  0.70182123  0.07869899     0.07000
C651        C  0.90831583  0.67385977  0.09696222    -0.02800
C652        C  0.94254714  0.67961163  0.11198490    -0.02800
C653        C  0.95871401  0.71385894  0.11028388     0.07100
C654        C  0.94304147  0.74025325  0.08799382    -0.03000
Br655      Br  0.96474020  0.78709320  0.08283297    -0.01500
Br656      Br  0.89075700  0.76896460  0.03873028    -0.01600
Br657      Br  0.96776706  0.64015034  0.13388384    -0.01600
Br658      Br  0.88602772  0.62726109  0.10070451    -0.01600
C659        C  0.68575032  0.77446920  0.95838019    -0.02700
C660        C  0.67802966  0.74534403  0.98161343     0.07000
C661        C  0.64265561  0.73125483  0.98156050    -0.02800
C662        C  0.61769608  0.74169494  0.95511640    -0.02800
C663        C  0.62778325  0.76621778  0.92781697     0.07100
C664        C  0.66071412  0.78487392  0.93186015    -0.03000
Br665      Br  0.67154535  0.82572740  0.90168911    -0.01500
Br666      Br  0.73087843  0.79986193  0.96103789    -0.01600
Br667      Br  0.57015024  0.72098552  0.95690773    -0.01600
Br668      Br  0.62732900  0.69758185  0.01808591    -0.01600
C669        C  0.06747463  0.31034062  0.83275385    -0.02700
C670        C  0.03792231  0.31084690  0.85661837     0.07000
C671        C  0.04310451  0.32080831  0.89279681    -0.02800
C672        C  0.07804440  0.32777950  0.90563233    -0.02800
C673        C  0.10793758  0.32472122  0.88229715     0.07100
C674        C  0.10220306  0.31753000  0.84531262    -0.03000
Br675      Br  0.14188425  0.31294678  0.81169913    -0.01500
Br676      Br  0.06127107  0.29625674  0.78305423    -0.01600
Br677      Br  0.08487224  0.34269431  0.95481822    -0.01600
Br678      Br  0.00220255  0.32573300  0.92428952    -0.01600
C679        C  0.81614626  0.17686394  0.83369105    -0.02700
C680        C  0.84681484  0.17727148  0.81174702     0.07000
C681        C  0.85057014  0.15182978  0.78378933    -0.02800
C682        C  0.82259685  0.12721449  0.77685277    -0.02800
C683        C  0.79064578  0.12902893  0.79712938     0.07100
C684        C  0.78786612  0.15364527  0.82590255    -0.03000
Br685      Br  0.74412800  0.15902475  0.85298859    -0.01500
Br686      Br  0.81131713  0.21027316  0.87305876    -0.01600
Br687      Br  0.82666114  0.09298486  0.73812604    -0.01600
Br688      Br  0.89267861  0.15237572  0.75369640    -0.01600
C689        C  0.86968867  0.23403211  0.94915341    -0.02700
C690        C  0.86176247  0.26355791  0.92668650     0.07000
C691        C  0.82900256  0.28201987  0.93260561    -0.02800
C692        C  0.80218346  0.26763336  0.95550147    -0.02800
C693        C  0.80929347  0.23680562  0.97665249     0.07100
C694        C  0.84448511  0.22209565  0.97510443    -0.03000
Br695      Br  0.85950651  0.18579472  0.00889316    -0.01500
Br696      Br  0.91342320  0.20687477  0.94264065    -0.01600
Br697      Br  0.75484646  0.28871954  0.95394603    -0.01600
Br698      Br  0.82047584  0.32729699  0.90886458    -0.01600
C699        C  0.80398231  0.59522623  0.90632060    -0.02700
C700        C  0.79854256  0.61790105  0.87647447     0.07000
C701        C  0.78656618  0.65343366  0.88228273    -0.02800
C702        C  0.77970410  0.66594911  0.91732170    -0.02800
C703        C  0.78452997  0.64312012  0.94740370     0.07100
C704        C  0.79710702  0.60779845  0.94165500    -0.03000
Br705      Br  0.80647157  0.57705944  0.98213885    -0.01500
Br706      Br  0.82181980  0.54721265  0.89887256    -0.01600
Br707      Br  0.76114273  0.71423139  0.92271006    -0.01600
Br708      Br  0.77562617  0.68460739  0.84207704    -0.01600
C709        C  0.89895385  0.46189011  0.78322767    -0.02700
C710        C  0.86181741  0.46821980  0.78703887     0.07000
C711        C  0.83894493  0.43987649  0.79733581    -0.02800
C712        C  0.85254705  0.40506136  0.80129058    -0.02800
C713        C  0.88993224  0.39856667  0.79845725     0.07100
C714        C  0.91313297  0.42737235  0.78967568    -0.03000
Br715      Br  0.96433265  0.42018183  0.78632430    -0.01500
Br716      Br  0.93053130  0.50074323  0.76979730    -0.01600
Br717      Br  0.81825018  0.36608580  0.80549675    -0.01600
Br718      Br  0.78794592  0.44750297  0.80364613    -0.01600
C719        C  0.68193520  0.62545699  0.82621145    -0.02700
C720        C  0.68815688  0.61772453  0.78955599     0.07000
C721        C  0.66290030  0.62878975  0.76391301    -0.02800
C722        C  0.63456384  0.65158315  0.77442887    -0.02800
C723        C  0.63352988  0.66545041  0.80971367     0.07100
C724        C  0.65565317  0.65058915  0.83620037    -0.03000
Br725      Br  0.65218890  0.66700105  0.88538779    -0.01500
Br726      Br  0.70927602  0.60171270  0.86270064    -0.01600
Br727      Br  0.59699637  0.66390629  0.74115849    -0.01600
Br728      Br  0.66793192  0.61396006  0.71464281    -0.01600
C729        C  0.14872025  0.65672158  0.32760634    -0.02700
C730        C  0.15602646  0.68399256  0.35263360     0.07000
C731        C  0.13532198  0.71569367  0.35218394    -0.02800
C732        C  0.10967607  0.72092906  0.32474993    -0.02800
C733        C  0.10711440  0.69606066  0.29624717     0.07100
C734        C  0.12622850  0.66350091  0.29839692    -0.03000
Br735      Br  0.12535992  0.62931408  0.25971712    -0.01500
Br736      Br  0.16952316  0.60983544  0.33329538    -0.01600
Br737      Br  0.07877209  0.76218345  0.32539608    -0.01600
Br738      Br  0.14408903  0.75289769  0.38706508    -0.01600
C739        C  0.23047999  0.54351497  0.36774982    -0.02700
C740        C  0.24922820  0.57429722  0.35579694     0.07000
C741        C  0.25828430  0.57675021  0.31864553    -0.02800
C742        C  0.24551206  0.55097683  0.29377428    -0.02800
C743        C  0.22394792  0.52202087  0.30544657     0.07100
C744        C  0.21778668  0.51777963  0.34284066    -0.03000
Br745      Br  0.19198931  0.47654090  0.36070040    -0.01500
Br746      Br  0.22202203  0.53615950  0.41857191    -0.01600
Br747      Br  0.25478762  0.55798161  0.24301590    -0.01600
Br748      Br  0.28541323  0.61691948  0.29994656    -0.01600
C749        C  0.32172526  0.79523811  0.34850178    -0.02700
C750        C  0.29134788  0.79577505  0.37118222     0.07000
C751        C  0.27051710  0.82725186  0.37371574    -0.02800
C752        C  0.27873690  0.85706681  0.35162796    -0.02800
C753        C  0.30836590  0.85556165  0.32780605     0.07100
C754        C  0.33112873  0.82555292  0.32863257    -0.03000
Br755      Br  0.37598606  0.82596161  0.30285817    -0.01500
Br756      Br  0.34934378  0.75217174  0.34130499    -0.01600
Br757      Br  0.24854021  0.89881170  0.35287509    -0.01600
Br758      Br  0.22922034  0.82815991  0.40500495    -0.01600
C759        C  0.43852808  0.73672708  0.40077271    -0.02700
C760        C  0.45524657  0.71311470  0.37580294     0.07000
C761        C  0.43871474  0.67966899  0.36852727    -0.02800
C762        C  0.40438392  0.67174175  0.38265281    -0.02800
C763        C  0.38645687  0.69657445  0.40515378     0.07100
C764        C  0.40438244  0.72851344  0.41524338    -0.03000
Br765      Br  0.38039435  0.76377191  0.44516069    -0.01500
Br766      Br  0.46033647  0.78214620  0.41338577    -0.01600
Br767      Br  0.38141606  0.62691073  0.37049992    -0.01600
Br768      Br  0.46336876  0.64385952  0.34000592    -0.01600
C769        C  0.61815645  0.72878120  0.16987536    -0.02700
C770        C  0.61958507  0.70869903  0.20189775     0.07000
C771        C  0.64247301  0.67858624  0.20361220    -0.02800
C772        C  0.66246362  0.66795834  0.17361070    -0.02800
C773        C  0.66440281  0.69000085  0.14321127     0.07100
C774        C  0.64152601  0.72019831  0.14089223    -0.03000
Br775      Br  0.64444772  0.75149919  0.09989960    -0.01500
Br776      Br  0.58665450  0.76961073  0.16719037    -0.01600
Br777      Br  0.68727909  0.62262421  0.17430240    -0.01600
Br778      Br  0.65070041  0.65338079  0.24780980    -0.01600
C779        C  0.44675367  0.80639037  0.23913636    -0.02700
C780        C  0.47464162  0.81873759  0.26175469     0.07000
C781        C  0.47744538  0.85614102  0.26814556    -0.02800
C782        C  0.45140158  0.88020768  0.25463382    -0.02800
C783        C  0.42139501  0.86744681  0.23524669     0.07100
C784        C  0.42112324  0.83061047  0.22496253    -0.03000
Br785      Br  0.38467163  0.81166120  0.19330790    -0.01500
Br786      Br  0.44019698  0.75546789  0.23133623    -0.01600
Br787      Br  0.45803778  0.93124515  0.26110229    -0.01600
Br788      Br  0.51690665  0.87504548  0.29571361    -0.01600
C789        C  0.55352351  0.20783103  0.73178077    -0.02700
C790        C  0.51867839  0.19463460  0.72435301     0.07000
C791        C  0.51138161  0.15771242  0.73043675    -0.02800
C792        C  0.53886561  0.13420572  0.74147956    -0.02800
C793        C  0.57373670  0.14719870  0.74708921     0.07100
C794        C  0.58053417  0.18442567  0.74388681    -0.03000
Br795      Br  0.62792420  0.20363247  0.75287853    -0.01500
Br796      Br  0.56650908  0.25712158  0.72164826    -0.01600
Br797      Br  0.52877297  0.08416765  0.75026582    -0.01600
Br798      Br  0.46386458  0.13848842  0.72415752    -0.01600
C799        C  0.34681663  0.27763875  0.85013244    -0.02700
C800        C  0.33433213  0.31311945  0.85466904     0.07000
C801        C  0.35162759  0.34123002  0.83611581    -0.02800
C802        C  0.37850950  0.33321153  0.81064091    -0.02800
C803        C  0.38676785  0.29726719  0.80230234     0.07100
C804        C  0.37320382  0.26982966  0.82412760    -0.03000
Br805      Br  0.39048655  0.22169336  0.81757757    -0.01500
Br806      Br  0.32666828  0.23942166  0.87809961    -0.01600
Br807      Br  0.40322102  0.37126387  0.78596150    -0.01600
Br808      Br  0.33535335  0.39012895  0.84143961    -0.01600
C809        C  0.39011459  0.45335692  0.69650448    -0.02700
C810        C  0.35389225  0.45823982  0.70661380     0.07000
C811        C  0.33165870  0.42787703  0.71115543    -0.02800
C812        C  0.34551480  0.39312467  0.70599729    -0.02800
C813        C  0.38139138  0.38810209  0.69435851     0.07100
C814        C  0.40372571  0.41848792  0.69002098    -0.03000
Br815      Br  0.45299643  0.41274226  0.67513093    -0.01500
Br816      Br  0.42103711  0.49453558  0.69101108    -0.01600
Br817      Br  0.31603739  0.35256805  0.71972052    -0.01600
Br818      Br  0.28254278  0.43323609  0.72746569    -0.01600
C819        C  0.26287599  0.58954078  0.58756100    -0.02700
C820        C  0.29665750  0.59458821  0.60443408     0.07000
C821        C  0.32502481  0.60947184  0.58412319    -0.02800
C822        C  0.31859605  0.62374137  0.54957653    -0.02800
C823        C  0.28376833  0.62284690  0.53480381     0.07100
C824        C  0.25634738  0.60431587  0.55335801    -0.03000
Br825      Br  0.20819712  0.60255728  0.53410372    -0.01500
Br826      Br  0.22346007  0.56562518  0.61179806    -0.01600
Br827      Br  0.35771162  0.64400271  0.52227924    -0.01600
Br828      Br  0.37311355  0.60836261  0.60290876    -0.01600
C829        C  0.22031553  0.44344508  0.83367963    -0.02700
C830        C  0.24175713  0.43719534  0.86428517     0.07000
C831        C  0.26652638  0.46379483  0.87495432    -0.02800
C832        C  0.27289505  0.49377374  0.85278937    -0.02800
C833        C  0.25653582  0.49618978  0.81838045     0.07100
C834        C  0.22755692  0.47266189  0.81075963    -0.03000
Br835      Br  0.19685424  0.47931810  0.76946081    -0.01500
Br836      Br  0.18053179  0.41190854  0.82292774    -0.01600
Br837      Br  0.30344204  0.53167698  0.87109252    -0.01600
Br838      Br  0.29459872  0.45828348  0.91819959    -0.01600
C839        C  0.33658726  0.68078699  0.83643644    -0.02700
C840        C  0.31021594  0.65467543  0.83039427     0.07000
C841        C  0.27950012  0.65340764  0.85267313    -0.02800
C842        C  0.27383625  0.68051362  0.87875677    -0.02800
C843        C  0.29851571  0.70891356  0.88175076     0.07100
C844        C  0.33089247  0.70756706  0.86221962    -0.03000
Br845      Br  0.36682239  0.74380386  0.86875890    -0.01500
Br846      Br  0.37916969  0.68213557  0.80695353    -0.01600
Br847      Br  0.23254985  0.67940512  0.91003693    -0.01600
Br848      Br  0.24465899  0.61586179  0.84608943    -0.01600
C849        C  0.43516946  0.66576709  0.71936995    -0.02700
C850        C  0.42530065  0.63602231  0.74075434     0.07000
C851        C  0.44600834  0.62845624  0.77165359    -0.02800
C852        C  0.47340563  0.65215821  0.78276104    -0.02800
C853        C  0.47858109  0.68574281  0.76510566     0.07100
C854        C  0.46138000  0.69053881  0.73138312    -0.03000
Br855      Br  0.47460196  0.72942694  0.69965934    -0.01500
Br856      Br  0.41300132  0.67244529  0.67299566    -0.01600
Br857      Br  0.50374666  0.63622693  0.82185443    -0.01600
Br858      Br  0.43462267  0.58805682  0.80241425    -0.01600
C859        C  0.59002904  0.56237748  0.25709865    -0.02700
C860        C  0.61186424  0.54460165  0.28255167     0.07000
C861        C  0.61639852  0.56049099  0.31691315    -0.02800
C862        C  0.60257986  0.59503373  0.32434699    -0.02800
C863        C  0.58251107  0.61358825  0.29827293     0.07100
C864        C  0.57530627  0.59650282  0.26504132    -0.03000
Br865      Br  0.54940932  0.62183456  0.22807511    -0.01500
Br866      Br  0.58288025  0.54225773  0.20964806    -0.01600
Br867      Br  0.61251348  0.61772820  0.36999886    -0.01600
Br868      Br  0.64113617  0.53491416  0.35447947    -0.01600
C869        C  0.68571485  0.32944568  0.10590224    -0.02700
C870        C  0.71306449  0.30450427  0.11450862     0.07000
C871        C  0.73419408  0.31097501  0.14514369    -0.02800
C872        C  0.72258648  0.33543976  0.17133591    -0.02800
C873        C  0.69261154  0.35771010  0.16501451     0.07100
C874        C  0.67589598  0.35635835  0.13101400    -0.03000
Br875      Br  0.63710967  0.38879932  0.12000665    -0.01500
Br876      Br  0.66088397  0.32712480  0.06058169    -0.01600
Br877      Br  0.74736459  0.33568616  0.21641106    -0.01600
Br878      Br  0.77951157  0.28632344  0.15148624    -0.01600
C879        C  0.56167930  0.33314669  0.26608369    -0.02700
C880        C  0.56304588  0.36837337  0.25140361     0.07000
C881        C  0.53357172  0.38009526  0.23061505    -0.02800
C882        C  0.50617021  0.35583689  0.22066124    -0.02800
C883        C  0.50803317  0.31927287  0.23058948     0.07100
C884        C  0.53484759  0.30863943  0.25509085    -0.03000
Br885      Br  0.53689819  0.25965585  0.27200413    -0.01500
Br886      Br  0.59661802  0.31674243  0.30067159    -0.01600
Br887      Br  0.46505123  0.37337275  0.19466973    -0.01600
Br888      Br  0.52938873  0.42990692  0.21689253    -0.01600
C889        C  0.72324869  0.51936219  0.14321726    -0.02700
C890        C  0.73018017  0.52333295  0.18045755     0.07000
C891        C  0.75232020  0.55208744  0.19160367    -0.02800
C892        C  0.76500940  0.57771563  0.16642228    -0.02800
C893        C  0.75401650  0.57629132  0.12970866     0.07100
C894        C  0.73432124  0.54583770  0.11827109    -0.03000
Br895      Br  0.72252143  0.53957119  0.06809714    -0.01500
Br896      Br  0.69939527  0.47676548  0.12572798    -0.01600
Br897      Br  0.79456960  0.61648963  0.18446706    -0.01600
Br898      Br  0.76238829  0.55916913  0.24215110    -0.01600
C899        C  0.71360376  0.43346085  0.40914138    -0.02700
C900        C  0.68270996  0.42262209  0.38993107     0.07000
C901        C  0.65795952  0.39946988  0.40692501    -0.02800
C902        C  0.66574258  0.38430690  0.44068658    -0.02800
C903        C  0.69927363  0.39074538  0.45743488     0.07100
C904        C  0.72229087  0.41707610  0.44227494    -0.03000
Br905      Br  0.76791453  0.42857679  0.46399543    -0.01500
Br906      Br  0.74700774  0.46727988  0.38824746    -0.01600
Br907      Br  0.62965446  0.35466350  0.46350257    -0.01600
Br908      Br  0.61349821  0.38726455  0.38326086    -0.01600
C909        C  0.58490656  0.33939309  0.61490305    -0.02700
C910        C  0.59642133  0.31981185  0.58432754     0.07000
C911        C  0.57127331  0.29765775  0.56656940    -0.02800
C912        C  0.53697167  0.29159318  0.58194806    -0.02800
C913        C  0.52788418  0.30610532  0.61625069     0.07100
C914        C  0.55156473  0.33201965  0.63143585    -0.03000
Br915      Br  0.54105430  0.35689936  0.67612980    -0.01500
Br916      Br  0.61519070  0.37685534  0.63450291    -0.01600
Br917      Br  0.50257272  0.26388436  0.55479021    -0.01600
Br918      Br  0.58419375  0.27294132  0.52259498    -0.01600
C919        C  0.71847599  0.15682669  0.64075851    -0.02700
C920        C  0.68445411  0.15060362  0.65621280     0.07000
C921        C  0.65435539  0.16901293  0.64306349    -0.02800
C922        C  0.65898683  0.19768366  0.61920205    -0.02800
C923        C  0.69338383  0.20583623  0.60586178     0.07100
C924        C  0.72234222  0.18309655  0.61385208    -0.03000
Br925      Br  0.76636842  0.18751262  0.58684551    -0.01500
Br926      Br  0.75997102  0.13179741  0.65830615    -0.01600
Br927      Br  0.61859969  0.22743378  0.60735933    -0.01600
Br928      Br  0.60686032  0.15566179  0.65852980    -0.01600
C929        C  0.85357163  0.33244700  0.64357349    -0.02700
C930        C  0.82461191  0.30859165  0.63834927     0.07000
C931        C  0.82177399  0.27776381  0.66013451    -0.02800
C932        C  0.84693995  0.27116929  0.68708818    -0.02800
C933        C  0.87383564  0.29639082  0.69437799     0.07100
C934        C  0.87798847  0.32651237  0.67189529    -0.03000
Br935      Br  0.91494022  0.36119805  0.68210731    -0.01500
Br936      Br  0.85682341  0.37575592  0.61549039    -0.01600
Br937      Br  0.84335088  0.22824541  0.71567997    -0.01600
Br938      Br  0.78153755  0.24589186  0.65628068    -0.01600
C939        C  0.72710594  0.42943166  0.66942084    -0.02700
C940        C  0.73633062  0.42990962  0.63241630     0.07000
C941        C  0.75181376  0.46135838  0.61802787    -0.02800
C942        C  0.76231874  0.48987242  0.64085771    -0.02800
C943        C  0.75665299  0.48775666  0.67878968     0.07100
C944        C  0.73547311  0.45885062  0.69189953    -0.03000
Br945      Br  0.71553531  0.45884027  0.74005948    -0.01500
Br946      Br  0.70581983  0.38732486  0.69125545    -0.01600
Br947      Br  0.78278108  0.53210846  0.61840950    -0.01600
Br948      Br  0.75793950  0.46605373  0.56649555    -0.01600
C949        C  0.84072127  0.35309975  0.27051678    -0.02700
C950        C  0.84335154  0.33406929  0.30314337     0.07000
C951        C  0.81953987  0.34213838  0.33140796    -0.02800
C952        C  0.79020427  0.36469999  0.32559553    -0.02800
C953        C  0.78725823  0.38388109  0.29318875     0.07100
C954        C  0.81378362  0.37951988  0.26635086    -0.03000
Br955      Br  0.81149692  0.40784967  0.22319201    -0.01500
Br956      Br  0.87166973  0.34082091  0.23078845    -0.01600
Br957      Br  0.75214980  0.36557327  0.36080560    -0.01600
Br958      Br  0.82690512  0.32239915  0.37844555    -0.01600
C959        C  0.83397424  0.26499083  0.47597410    -0.02700
C960        C  0.79660924  0.26604603  0.46965564     0.07000
C961        C  0.78325726  0.25188526  0.43706137    -0.02800
C962        C  0.80711348  0.23960333  0.41002090    -0.02800
C963        C  0.84479697  0.24178300  0.41512135     0.07100
C964        C  0.85783952  0.25275407  0.44898213    -0.03000
Br965      Br  0.90864478  0.25072562  0.45852449    -0.01500
Br966      Br  0.85282792  0.28046775  0.52171236    -0.01600
Br967      Br  0.78734664  0.22440006  0.36439926    -0.01600
Br968      Br  0.73236488  0.25318580  0.42733219    -0.01600
C969        C  0.00802827  0.34454818  0.25635322    -0.02700
C970        C  0.01443851  0.30740049  0.25977174     0.07000
C971        C  0.04832006  0.29351202  0.25000997    -0.02800
C972        C  0.07622517  0.31676517  0.23921352    -0.02800
C973        C  0.07049040  0.35442542  0.23781418     0.07100
C974        C  0.03570220  0.36784593  0.24495080    -0.03000
Br975      Br  0.02559306  0.41817943  0.23843461    -0.01500
Br976      Br  0.96123205  0.36364736  0.26754814    -0.01600
Br977      Br  0.12322268  0.29642023  0.23055150    -0.01600
Br978      Br  0.05786486  0.24275269  0.25514384    -0.01600
C979        C  0.86227118  0.16304977  0.19051652    -0.02700
C980        C  0.88094091  0.19578398  0.19346342     0.07000
C981        C  0.88041340  0.21996764  0.16443414    -0.02800
C982        C  0.85675394  0.21400877  0.13535572    -0.02800
C983        C  0.83488062  0.18313225  0.13500849     0.07100
C984        C  0.84090475  0.15614464  0.16044472    -0.03000
Br985      Br  0.82071119  0.10923576  0.15330924    -0.01500
Br986      Br  0.86265516  0.12866206  0.22884570    -0.01600
Br987      Br  0.85380922  0.24798062  0.09667921    -0.01600
Br988      Br  0.91136886  0.26124066  0.16539451    -0.01600
C989        C  0.29399871  0.13515553  0.66069544    -0.02700
C990        C  0.28681418  0.11948225  0.69431114     0.07000
C991        C  0.31234790  0.12197098  0.72179996    -0.02800
C992        C  0.34228127  0.14466923  0.71757605    -0.02800
C993        C  0.34820191  0.16251431  0.68465403     0.07100
C994        C  0.32564295  0.15481607  0.65533797    -0.03000
Br995      Br  0.33657868  0.17266070  0.60811925    -0.01500
Br996      Br  0.25902296  0.13293597  0.62287609    -0.01600
Br997      Br  0.37475414  0.15119479  0.75684796    -0.01600
Br998      Br  0.30570818  0.09459648  0.76504646    -0.01600
C999        C  0.21607976  0.18053260  0.87158839    -0.02700
C1000       C  0.19055267  0.20769740  0.87733727     0.07000
C1001       C  0.15616783  0.20381779  0.86233502    -0.02800
C1002       C  0.14942549  0.17670410  0.83692297    -0.02800
C1003       C  0.17685761  0.15261917  0.82703251     0.07100
C1004       C  0.20963007  0.15346040  0.84579256    -0.03000
Br1005     Br  0.24669681  0.11959212  0.83438286    -0.01500
Br1006     Br  0.25906247  0.17999646  0.89975468    -0.01600
Br1007     Br  0.10269187  0.17306191  0.81528890    -0.01600
Br1008     Br  0.11763841  0.23415526  0.87842105    -0.01600
C1009       C  0.03264498  0.20321960  0.73058069    -0.02700
C1010       C  0.00835121  0.19387322  0.75862430     0.07000
C1011       C  0.00774871  0.15728404  0.76993553    -0.02800
C1012       C  0.03309845  0.13258741  0.75626560    -0.02800
C1013       C  0.06215430  0.14448468  0.73493840     0.07100
C1014       C  0.06093645  0.17983409  0.72095815    -0.03000
Br1015     Br  0.09910926  0.19872677  0.69101629    -0.01500
Br1016     Br  0.02750738  0.24702587  0.70317472    -0.01600
Br1017     Br  0.02729827  0.08192466  0.76644317    -0.01600
Br1018     Br  0.97328271  0.13898783  0.80450776    -0.01600
C1019       C  0.23297993  0.94904146  0.78786547    -0.02700
C1020       C  0.22204922  0.98285775  0.80107158     0.07000
C1021       C  0.22234076  0.98931954  0.83854642     0.04400
C1022       C  0.23276095  0.96213120  0.86264042    -0.02800
C1023       C  0.24239510  0.92783960  0.84958042     0.07100
C1024       C  0.24248267  0.92150043  0.81192944    -0.03000
Br1025     Br  0.25099343  0.87386572  0.79281586    -0.01500
Br1026     Br  0.23143551  0.93901314  0.73682446    -0.01600
Br1027     Br  0.23345327  0.97204515  0.91365542    -0.01600
Br1028     Br  0.20795019  0.03543328  0.85721475    -0.01600
C1029       C  0.31987599  0.16797248  0.31673219    -0.02700
C1030       C  0.32060614  0.18773401  0.34892297     0.07000
C1031       C  0.34724251  0.21434024  0.35356358    -0.02800
C1032       C  0.37120860  0.22228067  0.32497134    -0.02800
C1033       C  0.36601112  0.20631807  0.29094783     0.07100
C1034       C  0.33994173  0.17914142  0.28710795    -0.03000
Br1035     Br  0.32845187  0.15840546  0.24104002    -0.01500
Br1036     Br  0.29201628  0.12460438  0.31322805    -0.01600
Br1037     Br  0.40940609  0.25637422  0.33150798    -0.01600
Br1038     Br  0.34929244  0.24170154  0.39745465    -0.01600
C1039       C  0.23074778  0.05084386  0.29516660    -0.02700
C1040       C  0.25407725  0.02352333  0.30763883     0.07000
C1041       C  0.26032338  0.02102078  0.34510678    -0.02800
C1042       C  0.24519503  0.04624199  0.36915514    -0.02800
C1043       C  0.22581695  0.07604805  0.35625257     0.07100
C1044       C  0.21613364  0.07649390  0.31937977    -0.03000
Br1045     Br  0.18506809  0.11347794  0.30057604    -0.01500
Br1046     Br  0.22253412  0.05697524  0.24420439    -0.01600
Br1047     Br  0.24992446  0.03910975  0.42039003    -0.01600
Br1048     Br  0.29087793  0.98409719  0.36443996    -0.01600
C1049       C  0.31874529  0.27051181  0.56940005    -0.02700
C1050       C  0.35334776  0.25487543  0.57092497     0.07000
C1051       C  0.36376150  0.23147907  0.54252339    -0.02800
C1052       C  0.33862395  0.22072562  0.51612196    -0.02800
C1053       C  0.30244563  0.23267529  0.51766849     0.07100
C1054       C  0.29296162  0.25806740  0.54451924    -0.03000
Br1055     Br  0.24366395  0.27267561  0.55114294    -0.01500
Br1056     Br  0.30680178  0.31072938  0.60024875    -0.01600
Br1057     Br  0.35448685  0.18840126  0.47844186    -0.01600
Br1058     Br  0.41178576  0.21195966  0.53990639    -0.01600
C1059       C  0.04353568  0.17856272  0.37581989    -0.02700
C1060       C  0.02598537  0.21194466  0.38114233     0.07000
C1061       C  0.04025093  0.23620344  0.40687909    -0.02800
C1062       C  0.07325652  0.22866384  0.42397613    -0.02800
C1063       C  0.09321909  0.19785065  0.41406768     0.07100
C1064       C  0.07689948  0.17173487  0.39211430    -0.03000
Br1065     Br  0.10086393  0.12639169  0.38429810    -0.01500
Br1066     Br  0.02258696  0.14174931  0.34584236    -0.01600
Br1067     Br  0.09298940  0.26311187  0.45747092    -0.01600
Br1068     Br  0.01768217  0.28212477  0.41571690    -0.01600
C1069       C  0.15966429  0.12951241  0.54951501    -0.02700
C1070       C  0.19174365  0.12044939  0.53102410     0.07000
C1071       C  0.21273837  0.09150733  0.54397727    -0.02800
C1072       C  0.20412807  0.07527483  0.57710610    -0.02800
C1073       C  0.17576359  0.08900631  0.59833415     0.07100
C1074       C  0.15193118  0.11397462  0.58313203    -0.03000
Br1075     Br  0.10853916  0.12674264  0.60869896    -0.01500
Br1076     Br  0.12593917  0.16321248  0.52932307    -0.01600
Br1077     Br  0.23400618  0.03687196  0.59485576    -0.01600
Br1078     Br  0.25603731  0.07618033  0.51947762    -0.01600
C1079       C  0.22069567  0.32691669  0.37248938    -0.02700
C1080       C  0.19338514  0.30157544  0.37873656     0.07000
C1081       C  0.15926055  0.30682102  0.36345338    -0.02800
C1082       C  0.15220139  0.33726951  0.34289063    -0.02800
C1083       C  0.18022981  0.36049507  0.33362766     0.07100
C1084       C  0.21416181  0.35624447  0.34950439    -0.03000
Br1085     Br  0.25164634  0.38973751  0.33846424    -0.01500
Br1086     Br  0.26778448  0.31911445  0.39203015    -0.01600
Br1087     Br  0.10436468  0.34601639  0.32541630    -0.01600
Br1088     Br  0.12382591  0.26959410  0.36425941    -0.01600
C1089       C  0.16267111  0.62809308  0.71898366    -0.02700
C1090       C  0.19414101  0.63018500  0.69767223     0.07000
C1091       C  0.19376838  0.65087552  0.66583749    -0.02800
C1092       C  0.16254293  0.66839733  0.65546936    -0.02800
C1093       C  0.13365449  0.67134490  0.67937559     0.07100
C1094       C  0.13253031  0.64943436  0.71018854    -0.03000
Br1095     Br  0.09027646  0.64927651  0.74021695    -0.01500
Br1096     Br  0.16231972  0.59978279  0.76221741    -0.01600
Br1097     Br  0.15866579  0.68749444  0.60765720    -0.01600
Br1098     Br  0.23632097  0.65957360  0.63736284    -0.01600
C1099       C  0.19472231  0.76148698  0.54355745    -0.02700
C1100       C  0.18308613  0.73878174  0.51533072     0.07000
C1101       C  0.14596834  0.73143682  0.51230965    -0.02800
C1102       C  0.12130622  0.74477797  0.53801613    -0.02800
C1103       C  0.13331923  0.76410265  0.56854972     0.07100
C1104       C  0.17027175  0.77349008  0.57034844    -0.03000
Br1105     Br  0.18932090  0.79922010  0.61132135    -0.01500
Br1106     Br  0.24492341  0.77371647  0.54788711    -0.01600
Br1107     Br  0.07070115  0.73604308  0.53090019    -0.01600
Br1108     Br  0.12812540  0.70251003  0.47304064    -0.01600
C1109       C  0.09734079  0.91654252  0.66289874    -0.02700
C1110       C  0.07505008  0.90013621  0.68872776     0.07000
C1111       C  0.06244620  0.92081873  0.71809427    -0.02800
C1112       C  0.07797193  0.95451562  0.72567320    -0.02800
C1113       C  0.10424657  0.96902321  0.70219703     0.07100
C1114       C  0.11142699  0.95104596  0.66924285    -0.03000
Br1115     Br  0.14029601  0.97331066  0.63221401    -0.01500
Br1116     Br  0.10776055  0.89181811  0.61826195    -0.01600
Br1117     Br  0.06533685  0.97811253  0.77038085    -0.01600
Br1118     Br  0.02468282  0.90306395  0.74887479    -0.01600
C1119       C  0.95262702  0.69606376  0.75659115    -0.02700
C1120       C  0.97385787  0.69039112  0.72528224     0.07000
C1121       C  0.97192811  0.65637613  0.70800762    -0.02800
C1122       C  0.94497083  0.63156532  0.71749999    -0.02800
C1123       C  0.91962292  0.64036927  0.74449372     0.07100
C1124       C  0.92563890  0.67113266  0.76596953    -0.03000
Br1125     Br  0.89710887  0.67872718  0.80891061    -0.01500
Br1126     Br  0.95897816  0.73783146  0.78688931    -0.01600
Br1127     Br  0.94174354  0.58688811  0.69103285    -0.01600
Br1128     Br  0.00647782  0.64259802  0.67145749    -0.01600
C1129       C  0.16217898  0.77371051  0.83103309    -0.02700
C1130       C  0.15882176  0.80519799  0.85192909     0.07000
C1131       C  0.12808827  0.82688316  0.84767006    -0.02800
C1132       C  0.10288220  0.81884307  0.82043318    -0.02800
C1133       C  0.10959624  0.79059148  0.79570578     0.07100
C1134       C  0.13800878  0.76658867  0.80300652    -0.03000
Br1135     Br  0.14451420  0.72370632  0.77436413    -0.01500
Br1136     Br  0.20059096  0.74035646  0.84007718    -0.01600
Br1137     Br  0.06011293  0.84741905  0.81696183    -0.01600
Br1138     Br  0.12246845  0.86994541  0.87615561    -0.01600
C1139       C  0.86832768  0.05753181  0.32332844    -0.02700
C1140       C  0.87820283  0.03893007  0.29144789     0.07000
C1141       C  0.90802510  0.05158092  0.27128308    -0.02800
C1142       C  0.92380654  0.08486655  0.28003843    -0.02800
C1143       C  0.90854879  0.10649104  0.30736237     0.07100
C1144       C  0.88264069  0.09166535  0.33054097    -0.03000
Br1145     Br  0.86596982  0.11885794  0.37168616    -0.01500
Br1146     Br  0.83553729  0.03665944  0.35781576    -0.01600
Br1147     Br  0.96339682  0.10254844  0.25139272    -0.01600
Br1148     Br  0.92567553  0.02625938  0.22928553    -0.01600
C1149       C  0.80277079  0.82967594  0.11415701    -0.02700
C1150       C  0.77871812  0.80193753  0.12392422     0.07000
C1151       C  0.75823113  0.80550210  0.15579323    -0.02800
C1152       C  0.76506895  0.83383692  0.17957691    -0.02800
C1153       C  0.79357677  0.85769278  0.17276992     0.07100
C1154       C  0.81130784  0.85668847  0.13920197    -0.03000
Br1155     Br  0.84981811  0.88980533  0.12850694    -0.01500
Br1156     Br  0.82526192  0.83098481  0.06739745    -0.01600
Br1157     Br  0.73461955  0.83999258  0.22114346    -0.01600
Br1158     Br  0.72055282  0.77174370  0.16755448    -0.01600
C1159       C  0.97794167  0.84865913  0.22885184    -0.02700
C1160       C  0.97204122  0.81128474  0.23250924     0.07000
C1161       C  0.94015182  0.79961106  0.24955908    -0.02800
C1162       C  0.91357779  0.82468044  0.26029157    -0.02800
C1163       C  0.91828866  0.86191003  0.25387105     0.07100
C1164       C  0.95119659  0.87367910  0.23909942    -0.03000
Br1165     Br  0.96007704  0.92437039  0.23335328    -0.01500
Br1166     Br  0.02328490  0.86603918  0.21063342    -0.01600
Br1167     Br  0.86933676  0.80695359  0.28092644    -0.01600
Br1168     Br  0.93103449  0.74895080  0.25563418    -0.01600
C1169       C  0.74868336  0.05982767  0.19998060    -0.02700
C1170       C  0.75992463  0.02605811  0.18696660     0.07000
C1171       C  0.75692609  0.01839186  0.14989413    -0.02800
C1172       C  0.74517189  0.04510173  0.12569416    -0.02800
C1173       C  0.73625154  0.07981599  0.13831942     0.07100
C1174       C  0.73662205  0.08646916  0.17599681    -0.03000
Br1175     Br  0.72548183  0.13347746  0.19534557    -0.01500
Br1176     Br  0.75357377  0.07106297  0.25055282    -0.01600
Br1177     Br  0.74075687  0.03394222  0.07521000    -0.01600
Br1178     Br  0.76857023  0.97102670  0.13237771    -0.01600
C1179       C  0.69580592  0.86828760  0.33467942    -0.02700
C1180       C  0.69768526  0.88821312  0.30258188     0.07000
C1181       C  0.66870092  0.88722178  0.27837534    -0.02800
C1182       C  0.64016592  0.86290215  0.28432898    -0.02800
C1183       C  0.63922293  0.84232366  0.31609150     0.07100
C1184       C  0.66530849  0.84802192  0.34251632    -0.03000
Br1185     Br  0.65865850  0.82921222  0.39007113    -0.01500
Br1186     Br  0.73631148  0.86484016  0.36652301    -0.01600
Br1187     Br  0.60412179  0.85579778  0.24813825    -0.01600
Br1188     Br  0.66977884  0.91658651  0.23589216    -0.01600
C1189       C  0.90406956  0.84369098  0.60691230    -0.02700
C1190       C  0.89036470  0.82204643  0.57898873     0.07000
C1191       C  0.91312724  0.79620593  0.56296461    -0.02800
C1192       C  0.94558870  0.78652737  0.57995539    -0.02800
C1193       C  0.95713231  0.80503557  0.61143101     0.07100
C1194       C  0.93766811  0.83592621  0.62235379    -0.03000
Br1195     Br  0.95702401  0.86868496  0.65765910    -0.01500
Br1196     Br  0.87646797  0.88427491  0.62392029    -0.01600
Br1197     Br  0.97112222  0.74522372  0.56134561    -0.01600
Br1198     Br  0.89840135  0.77116364  0.51980119    -0.01600
C1199       C  0.81958340  0.89812077  0.44875125    -0.02700
C1200       C  0.78412415  0.89928490  0.46247020     0.07000
C1201       C  0.75852649  0.92113770  0.44509201    -0.02800
C1202       C  0.76701077  0.93720674  0.41182061    -0.02800
C1203       C  0.80059677  0.93036105  0.39524188     0.07100
C1204       C  0.82762378  0.91332511  0.41507610    -0.03000
Br1205     Br  0.87551183  0.91050651  0.39541609    -0.01500
Br1206     Br  0.85735221  0.87552899  0.47576485    -0.01600
Br1207     Br  0.73046978  0.96433818  0.38709021    -0.01600
Br1208     Br  0.71030800  0.92580257  0.46390883    -0.01600
C1209       C  0.62874937  0.81727921  0.64037390    -0.02700
C1210       C  0.66353800  0.80190078  0.63982876     0.07000
C1211       C  0.67105453  0.77338776  0.66350167    -0.02800
C1212       C  0.64645534  0.76378148  0.69030327    -0.02800
C1213       C  0.61311708  0.78155159  0.69343527     0.07100
C1214       C  0.60325658  0.80635720  0.66657346    -0.03000
Br1215     Br  0.55672413  0.82892906  0.66844295    -0.01500
Br1216     Br  0.61718112  0.85657178  0.60884204    -0.01600
Br1217     Br  0.66096828  0.72834867  0.72504088    -0.01600
Br1218     Br  0.71583270  0.74756522  0.66112194    -0.01600
C1219       C  0.74577719  0.96330718  0.62582605    -0.02700
C1220       C  0.75332041  0.92881761  0.63930266     0.07000
C1221       C  0.75603347  0.92390083  0.67698720    -0.02800
C1222       C  0.74763013  0.95225173  0.70078269    -0.02800
C1223       C  0.73748846  0.98603001  0.68720354     0.07100
C1224       C  0.73841482  0.99187676  0.64972199    -0.03000
Br1225     Br  0.72943013  0.03922646  0.63114542    -0.01500
Br1226     Br  0.74556075  0.97153849  0.57461092    -0.01600
Br1227     Br  0.74561164  0.94318956  0.75191669    -0.01600
Br1228     Br  0.76781601  0.87747184  0.69682884    -0.01600
C1229       C  0.83349847  0.67266501  0.63948912    -0.02700
C1230       C  0.80390474  0.65184726  0.65031561     0.07000
C1231       C  0.77083856  0.65580155  0.63255546    -0.02800
C1232       C  0.76629690  0.68348193  0.60727157    -0.02800
C1233       C  0.79469871  0.70730205  0.60028232     0.07100
C1234       C  0.82875753  0.70046064  0.61474974    -0.03000
Br1235     Br  0.86821115  0.73173595  0.60412468    -0.01500
Br1236     Br  0.87984163  0.66623006  0.66127519    -0.01600
Br1237     Br  0.72113047  0.68997928  0.58316458    -0.01600
Br1238     Br  0.73203981  0.62355240  0.64310625    -0.01600
C1239       C  0.69830598  0.75898932  0.43895750    -0.02700
C1240       C  0.68645284  0.77163191  0.47281884     0.07000
C1241       C  0.64982029  0.76787777  0.48214522    -0.02800
C1242       C  0.62470820  0.75595841  0.45636864    -0.02800
C1243       C  0.63611701  0.74636092  0.42145897     0.07100
C1244       C  0.67347922  0.74525594  0.41386244    -0.03000
Br1245     Br  0.69123182  0.72912701  0.36755100    -0.01500
Br1246     Br  0.74793391  0.76478791  0.42477075    -0.01600
Br1247     Br  0.57468599  0.75164623  0.46899824    -0.01600
Br1248     Br  0.63409084  0.77793086  0.53059395    -0.01600
loop_ 
_geom_bond_atom_site_label_1 
_geom_bond_atom_site_label_2 
_geom_bond_distance 
_geom_bond_site_symmetry_2 
_ccdc_geom_bond_type 
Fe1          O17   2.087       .  S
Fe1           O7   2.042       .  S
Fe1          O14   2.048       .  S
Fe1           O6   2.066       .  S
Fe1          O12   1.942       .  S
Fe2           O5   2.088       .  S
Fe2           O9   2.069       .  S
Fe2          O13   2.099       .  S
Fe2          O18   2.073       .  S
Fe2          O12   1.960       .  S
Fe3          O21   2.075       .  S
Fe3           O8   2.082       .  S
Fe3          O15   2.086       .  S
Fe3           O4   2.084       .  S
Fe3          O12   1.960       .  S
O4           C11   1.272       .  A
O5           C19   1.272       .  A
O6           C11   1.269       .  A
O7           C10   1.265       .  A
O8           C20   1.275       .  A
O9           C22   1.269       .  A
C10          O15   1.271       .  A
C10        C1233   1.469       .  S
C11        C1190   1.494       .  S
O13          C16   1.274       .  A
O14          C16   1.263       .  A
C16        C1220   1.487       .  S
O17          C22   1.274       .  A
O18          C20   1.274       .  A
C19          O21   1.270       .  A
C19        C1240   1.493       .  S
C20        C1200   1.490       .  S
C22        C1210   1.493       .  S
Fe23         O39   2.041       .  S
Fe23         O29   2.088       .  S
Fe23         O36   2.070       .  S
Fe23         O28   2.066       .  S
Fe23         O34   1.939       .  S
Fe24         O27   2.068       .  S
Fe24         O31   2.088       .  S
Fe24         O35   2.065       .  S
Fe24         O40   2.096   1_565  S
Fe24         O34   1.950       .  S
Fe25         O43   2.091       .  S
Fe25         O30   2.062       .  S
Fe25         O37   2.046       .  S
Fe25         O26   2.098       .  S
Fe25         O34   1.952       .  S
O26          C33   1.269       .  A
O27          C41   1.264   1_565  A
O28          C33   1.262       .  A
O29          C32   1.280       .  A
O30          C42   1.276   1_565  A
O31          C44   1.273       .  A
C32          O37   1.273       .  A
C32        C1153   1.472       .  S
C33        C1163   1.502       .  S
O35          C38   1.269       .  A
O36          C38   1.273       .  A
C38        C1203   1.483       .  S
O39          C44   1.265       .  A
O40          C42   1.282       .  A
C41          O43   1.268   1_545  A
C41        C1170   1.490       .  S
C42        C1140   1.493       .  S
C44        C1180   1.474       .  S
Fe45         O61   2.047       .  S
Fe45         O51   2.090       .  S
Fe45         O58   2.072       .  S
Fe45         O50   2.071       .  S
Fe45         O56   1.934       .  S
Fe46         O49   2.077       .  S
Fe46         O53   2.106       .  S
Fe46         O57   2.075       .  S
Fe46         O62   2.120   1_455  S
Fe46         O56   1.945       .  S
Fe47         O65   2.080       .  S
Fe47         O52   2.064       .  S
Fe47         O59   2.065       .  S
Fe47         O48   2.085       .  S
Fe47         O56   1.948       .  S
O48          C55   1.268       .  A
O49          C63   1.265   1_455  A
O50          C55   1.263       .  A
O51          C54   1.281       .  A
O52          C64   1.273   1_455  A
O53          C66   1.276       .  A
C54          O59   1.273       .  A
C54        C1093   1.474       .  S
C55        C1103   1.507       .  S
O57          C60   1.272       .  A
O58          C60   1.274       .  A
C60        C1110   1.489       .  S
O61          C66   1.267       .  A
O62          C64   1.285       .  A
C63          O65   1.267   1_655  A
C63        C1120   1.503       .  S
C64        C1193   1.507       .  S
C66        C1133   1.499       .  S
Fe67         O83   2.046       .  S
Fe67         O73   2.083       .  S
Fe67         O80   2.071       .  S
Fe67         O72   2.070       .  S
Fe67         O78   1.938       .  S
Fe68         O71   2.093       .  S
Fe68         O75   2.093       .  S
Fe68         O79   2.088       .  S
Fe68         O84   2.097       .  S
Fe68         O78   1.953       .  S
Fe69         O87   2.085       .  S
Fe69         O74   2.060       .  S
Fe69         O81   2.072       .  S
Fe69         O70   2.082       .  S
Fe69         O78   1.950       .  S
O70          C77   1.268       .  A
O71          C85   1.272       .  A
O72          C77   1.263       .  A
O73          C76   1.279       .  A
O74          C86   1.272       .  A
O75          C88   1.274       .  A
C76          O81   1.274       .  A
C76        C1030   1.482       .  S
C77        C1043   1.504       .  S
O79          C82   1.274       .  A
O80          C82   1.274       .  A
C82        C1063   1.494       .  S
O83          C88   1.265       .  A
O84          C86   1.279       .  A
C85          O87   1.269       .  A
C85        C1053   1.509       .  S
C86        C1070   1.493       .  S
C88        C1080   1.472       .  S
Fe89        O105   2.092       .  S
Fe89         O95   2.054       .  S
Fe89        O102   2.061       .  S
Fe89         O94   2.067       .  S
Fe89        O100   1.943       .  S
Fe90         O93   2.076       .  S
Fe90         O97   2.070       .  S
Fe90        O101   2.078       .  S
Fe90        O106   2.075       .  S
Fe90        O100   1.949       .  S
Fe91        O109   2.076       .  S
Fe91         O96   2.081       .  S
Fe91        O103   2.086       .  S
Fe91         O92   2.072       .  S
Fe91        O100   1.954       .  S
O92          C99   1.270       .  A
O93         C107   1.269       .  A
O94          C99   1.271       .  A
O95          C98   1.269       .  A
O96         C108   1.274       .  A
O97         C110   1.273       .  A
C98         O103   1.272       .  A
C98         C990   1.472       .  S
C99        C1073   1.485       .  S
O101        C104   1.269       .  A
O102        C104   1.262       .  A
C104       C1013   1.499       .  S
O105        C110   1.276       .  A
O106        C108   1.274       .  A
C107        O109   1.271       .  A
C107       C1020   1.487   1_545  S
C108       C1113   1.494   1_545  S
C110       C1003   1.480       .  S
Fe111       O127   2.086       .  S
Fe111       O117   2.052       .  S
Fe111       O124   2.059       .  S
Fe111       O116   2.072       .  S
Fe111       O122   1.945       .  S
Fe112       O115   2.093       .  S
Fe112       O119   2.074       .  S
Fe112       O123   2.097       .  S
Fe112       O128   2.080       .  S
Fe112       O122   1.951       .  S
Fe113       O131   2.068       .  S
Fe113       O118   2.091       .  S
Fe113       O125   2.101       .  S
Fe113       O114   2.063       .  S
Fe113       O122   1.957       .  S
O114        C121   1.269       .  A
O115        C129   1.274       .  A
O116        C121   1.273       .  A
O117        C120   1.266       .  A
O118        C130   1.275       .  A
O119        C132   1.272       .  A
C120        O125   1.274       .  A
C120        C980   1.478       .  S
C121       C1143   1.480       .  S
O123        C126   1.274       .  A
O124        C126   1.264       .  A
C126        C963   1.497       .  S
O127        C132   1.275       .  A
O128        C130   1.273       .  A
C129        O131   1.271       .  A
C129        C970   1.489   1_655  S
C130       C1060   1.501   1_655  S
C132        C950   1.479       .  S
Fe133       O149   2.051       .  S
Fe133       O139   2.069       .  S
Fe133       O146   2.057       .  S
Fe133       O138   2.064       .  S
Fe133       O144   1.942       .  S
Fe134       O137   2.079       .  S
Fe134       O141   2.086       .  S
Fe134       O145   2.095       .  S
Fe134       O150   2.084       .  S
Fe134       O144   1.958       .  S
Fe135       O153   2.082       .  S
Fe135       O140   2.082       .  S
Fe135       O147   2.076       .  S
Fe135       O136   2.086       .  S
Fe135       O144   1.958       .  S
O136        C143   1.271       .  A
O137        C151   1.271       .  A
O138        C143   1.266       .  A
O139        C142   1.270       .  A
O140        C152   1.275       .  A
O141        C154   1.272       .  A
C142        O147   1.273       .  A
C142        C930   1.481       .  S
C143        C940   1.498       .  S
O145        C148   1.274       .  A
O146        C148   1.267       .  A
C148        C910   1.501       .  S
O149        C154   1.268       .  A
O150        C152   1.275       .  A
C151        O153   1.271       .  A
C151        C960   1.494       .  S
C152        C903   1.504       .  S
C154        C923   1.471       .  S
Fe155       O171   2.089       .  S
Fe155       O161   2.039       .  S
Fe155       O168   2.060       .  S
Fe155       O160   2.055       .  S
Fe155       O166   1.947       .  S
Fe156       O159   2.085       .  S
Fe156       O163   2.068       .  S
Fe156       O167   2.101       .  S
Fe156       O172   2.078       .  S
Fe156       O166   1.957       .  S
Fe157       O175   2.091       .  S
Fe157       O162   2.101       .  S
Fe157       O169   2.097       .  S
Fe157       O158   2.091       .  S
Fe157       O166   1.954       .  S
O158        C165   1.274       .  A
O159        C173   1.268       .  A
O160        C165   1.269       .  A
O161        C164   1.265       .  A
O162        C174   1.282       .  A
O163        C176   1.274       .  A
C164        O169   1.274       .  A
C164        C953   1.476       .  S
C165        C900   1.496       .  S
O167        C170   1.270       .  A
O168        C170   1.261       .  A
C170        C880   1.509       .  S
O171        C176   1.277       .  A
O172        C174   1.279       .  A
C173        O175   1.270       .  A
C173        C890   1.509       .  S
C174        C860   1.500       .  S
C176        C873   1.487       .  S
Fe177       O193   2.034       .  S
Fe177       O183   2.059       .  S
Fe177       O190   2.087       .  S
Fe177       O182   2.069       .  S
Fe177       O188   1.965       .  S
Fe178       O181   2.078       .  S
Fe178       O185   2.080       .  S
Fe178       O189   2.078       .  S
Fe178       O194   2.069       .  S
Fe178       O188   1.966       .  S
Fe179       O197   2.054       .  S
Fe179       O184   2.068       .  S
Fe179       O191   2.082       .  S
Fe179       O180   2.073       .  S
Fe179       O188   1.968       .  S
O180        C187   1.265       .  A
O181        C195   1.270       .  A
O182        C187   1.265       .  A
O183        C186   1.272       .  A
O184        C196   1.270       .  A
O185        C198   1.266       .  A
C186        O191   1.274       .  A
C186        C840   1.469       .  S
C187        C850   1.502       .  S
O189        C192   1.275       .  A
O190        C192   1.282       .  A
C192        C820   1.498       .  S
O193        C198   1.258       .  A
O194        C196   1.270       .  A
C195        O197   1.266       .  A
C195        C833   1.506       .  S
C196        C810   1.486       .  S
C198       C1090   1.480       .  S
Fe199       O215   2.059       .  S
Fe199       O205   2.069       .  S
Fe199       O212   2.082       .  S
Fe199       O204   2.061       .  S
Fe199       O210   1.943       .  S
Fe200       O203   2.061       .  S
Fe200       O207   2.104       .  S
Fe200       O211   2.086       .  S
Fe200       O216   2.094       .  S
Fe200       O210   1.959       .  S
Fe201       O219   2.092       .  S
Fe201       O206   2.069       .  S
Fe201       O213   2.070       .  S
Fe201       O202   2.097       .  S
Fe201       O210   1.955       .  S
O202        C209   1.277       .  A
O203        C217   1.270       .  A
O204        C209   1.272       .  A
O205        C208   1.268       .  A
O206        C218   1.268       .  A
O207        C220   1.277       .  A
C208        O213   1.267       .  A
C208        C803   1.474       .  S
C209        C813   1.491       .  S
O211        C214   1.270       .  A
O212        C214   1.271       .  A
C214       C1050   1.512       .  S
O215        C220   1.270       .  A
O216        C218   1.274       .  A
C217        O219   1.277       .  A
C217        C790   1.498       .  S
C218        C913   1.514       .  S
C220        C993   1.482       .  S
Fe221       O237   2.048       .  S
Fe221       O227   2.091       .  S
Fe221       O234   2.069       .  S
Fe221       O226   2.048       .  S
Fe221       O232   1.938       .  S
Fe222       O225   2.085       .  S
Fe222       O229   2.106       .  S
Fe222       O233   2.084       .  S
Fe222       O238   2.108       .  S
Fe222       O232   1.952       .  S
Fe223       O241   2.103       .  S
Fe223       O228   2.070       .  S
Fe223       O235   2.067       .  S
Fe223       O224   2.113       .  S
Fe223       O232   1.956       .  S
O224        C231   1.275       .  A
O225        C239   1.273       .  A
O226        C231   1.259       .  A
O227        C230   1.277       .  A
O228        C240   1.275       .  A
O229        C242   1.277       .  A
C230        O235   1.271       .  A
C230       C1183   1.476       .  S
C231       C1243   1.495       .  S
O233        C236   1.273       .  A
O234        C236   1.271       .  A
C236        C863   1.492       .  S
O237        C242   1.266       .  A
O238        C240   1.281       .  A
C239        O241   1.275       .  A
C239        C780   1.509       .  S
C240        C760   1.501       .  S
C242        C770   1.481       .  S
Fe243       O259   2.096       .  S
Fe243       O249   2.053       .  S
Fe243       O256   2.060       .  S
Fe243       O248   2.076       .  S
Fe243       O254   1.937       .  S
Fe244       O247   2.088       .  S
Fe244       O251   2.066       .  S
Fe244       O255   2.098       .  S
Fe244       O260   2.065       .  S
Fe244       O254   1.951       .  S
Fe245       O263   2.084       .  S
Fe245       O250   2.104       .  S
Fe245       O257   2.098       .  S
Fe245       O246   2.079       .  S
Fe245       O254   1.951       .  S
O246        C253   1.273       .  A
O247        C261   1.271       .  A
O248        C253   1.273       .  A
O249        C252   1.268       .  A
O250        C262   1.280       .  A
O251        C264   1.271       .  A
C252        O257   1.275       .  A
C252        C750   1.478       .  S
C253        C763   1.494       .  S
O255        C258   1.272       .  A
O256        C258   1.262       .  A
C258        C740   1.505       .  S
O259        C264   1.279       .  A
O260        C262   1.274       .  A
C261        O263   1.271       .  A
C261       C1100   1.502       .  S
C262        C823   1.490       .  S
C264        C730   1.480       .  S
Fe265       O281   2.060       .  S
Fe265       O271   2.080       .  S
Fe265       O278   2.081       .  S
Fe265       O270   2.057       .  S
Fe265       O276   1.936       .  S
Fe266       O269   2.054       .  S
Fe266       O273   2.084       .  S
Fe266       O277   2.072       .  S
Fe266       O282   2.073       .  S
Fe266       O276   1.950       .  S
Fe267       O285   2.102       .  S
Fe267       O272   2.056       .  S
Fe267       O279   2.067       .  S
Fe267       O268   2.097       .  S
Fe267       O276   1.944       .  S
O268        C275   1.277       .  A
O269        C283   1.268       .  A
O270        C275   1.270       .  A
O271        C274   1.270       .  A
O272        C284   1.265       .  A
O273        C286   1.273       .  A
C274        O279   1.266       .  A
C274        C720   1.476       .  S
C275        C700   1.487       .  S
O277        C280   1.269       .  A
O278        C280   1.271       .  A
C280       C1123   1.494       .  S
O281        C286   1.271       .  A
O282        C284   1.269       .  A
C283        O285   1.278       .  A
C283        C943   1.514       .  S
C284        C710   1.479       .  S
C286       C1230   1.474       .  S
Fe287       O303   2.073       .  S
Fe287       O293   2.046       .  S
Fe287       O300   2.048       .  S
Fe287       O292   2.062       .  S
Fe287       O298   1.931       .  S
Fe288       O291   2.086       .  S
Fe288       O295   2.060       .  S
Fe288       O299   2.104       .  S
Fe288       O304   2.055       .  S
Fe288       O298   1.958       .  S
Fe289       O307   2.054       .  S
Fe289       O294   2.096       .  S
Fe289       O301   2.100       .  S
Fe289       O290   2.092       .  S
Fe289       O298   1.952       .  S
O290        C297   1.270       .  A
O291        C305   1.272       .  A
O292        C297   1.264       .  A
O293        C296   1.272       .  A
O294        C306   1.278   1_655  A
O295        C308   1.264       .  A
C296        O301   1.279       .  A
C296        C680   1.469       .  S
C297        C690   1.508       .  S
O299        C302   1.277       .  A
O300        C302   1.268       .  A
C302        C713   1.488       .  S
O303        C308   1.267       .  A
O304        C306   1.270   1_655  A
C305        O307   1.264       .  A
C305       C1010   1.513   1_655  S
C306        C670   1.482       .  S
C308        C933   1.472       .  S
Fe309       O325   2.043       .  S
Fe309       O315   2.080       .  S
Fe309       O322   2.063       .  S
Fe309       O314   2.062       .  S
Fe309       O320   1.949       .  S
Fe310       O313   2.089       .  S
Fe310       O317   2.062       .  S
Fe310       O321   2.094       .  S
Fe310       O326   2.067   1_554  S
Fe310       O320   1.953       .  S
Fe311       O329   2.071       .  S
Fe311       O316   2.088       .  S
Fe311       O323   2.073       .  S
Fe311       O312   2.110       .  S
Fe311       O320   1.967       .  S
O312        C319   1.273       .  A
O313        C327   1.267       .  A
O314        C319   1.261       .  A
O315        C318   1.278       .  A
O316        C328   1.283   1_554  A
O317        C330   1.266       .  A
C318        O323   1.273       .  A
C318        C773   1.481       .  S
C319        C893   1.516       .  S
O321        C324   1.275       .  A
O322        C324   1.270       .  A
C324        C650   1.497       .  S
O325        C330   1.266       .  A
O326        C328   1.275       .  A
C327        O329   1.265       .  A
C327        C660   1.508   1_554  S
C328        C703   1.492       .  S
C330       C1150   1.480       .  S
Fe331       O347   2.058       .  S
Fe331       O337   2.070       .  S
Fe331       O344   2.076       .  S
Fe331       O336   2.066       .  S
Fe331       O342   1.941       .  S
Fe332       O335   2.080       .  S
Fe332       O339   2.089       .  S
Fe332       O343   2.082       .  S
Fe332       O348   2.085       .  S
Fe332       O342   1.952       .  S
Fe333       O351   2.094       .  S
Fe333       O338   2.077       .  S
Fe333       O345   2.067       .  S
Fe333       O334   2.092       .  S
Fe333       O342   1.955       .  S
O334        C341   1.273       .  A
O335        C349   1.274       .  A
O336        C341   1.267       .  A
O337        C340   1.273       .  A
O338        C350   1.272       .  A
O339        C352   1.269       .  A
C340        O345   1.270       .  A
C340       C1083   1.468       .  S
C341        C973   1.498       .  S
O343        C346   1.275       .  A
O344        C346   1.275       .  A
C346        C623   1.496       .  S
O347        C352   1.265       .  A
O348        C350   1.273       .  A
C349        O351   1.275       .  A
C349        C743   1.501       .  S
C350        C630   1.498       .  S
C352        C643   1.479       .  S
Fe353       O369   2.089       .  S
Fe353       O359   2.050       .  S
Fe353       O366   2.070       .  S
Fe353       O358   2.081       .  S
Fe353       O364   1.951       .  S
Fe354       O357   2.082       .  S
Fe354       O361   2.060       .  S
Fe354       O365   2.086       .  S
Fe354       O370   2.067       .  S
Fe354       O364   1.958       .  S
Fe355       O373   2.090       .  S
Fe355       O360   2.104   1_455  S
Fe355       O367   2.105       .  S
Fe355       O356   2.079       .  S
Fe355       O364   1.959       .  S
O356        C363   1.273       .  A
O357        C371   1.269   1_455  A
O358        C363   1.275       .  A
O359        C362   1.266       .  A
O360        C372   1.280       .  A
O361        C374   1.271       .  A
C362        O367   1.276       .  A
C362        C733   1.481       .  S
C363        C633   1.495       .  S
O365        C368   1.269       .  A
O366        C368   1.266       .  A
C368        C610   1.501       .  S
O369        C374   1.277       .  A
O370        C372   1.273   1_455  A
C371        O373   1.272   1_655  A
C371       C1160   1.502       .  S
C372        C653   1.496       .  S
C374        C600   1.472       .  S
Fe375       O391   2.051       .  S
Fe375       O381   2.079       .  S
Fe375       O388   2.070       .  S
Fe375       O380   2.052       .  S
Fe375       O386   1.940       .  S
Fe376       O379   2.053       .  S
Fe376       O383   2.105       .  S
Fe376       O387   2.072       .  S
Fe376       O392   2.087       .  S
Fe376       O386   1.950       .  S
Fe377       O395   2.112       .  S
Fe377       O382   2.062       .  S
Fe377       O389   2.075       .  S
Fe377       O378   2.108       .  S
Fe377       O386   1.945       .  S
O378        C385   1.281       .  A
O379        C393   1.269       .  A
O380        C385   1.269       .  A
O381        C384   1.269       .  A
O382        C394   1.266       .  A
O383        C396   1.280       .  A
C384        O389   1.267       .  A
C384       C1000   1.482       .  S
C385        C673   1.488       .  S
O387        C390   1.266       .  A
O388        C390   1.266       .  A
C390        C830   1.491       .  S
O391        C396   1.272       .  A
O392        C394   1.273       .  A
C393        O395   1.281       .  A
C393        C590   1.504   1_556  S
C394        C620   1.503   1_556  S
C396        C800   1.479       .  S
Fe397       O413   2.051       .  S
Fe397       O403   2.037       .  S
Fe397       O410   2.066       .  S
Fe397       O402   2.071       .  S
Fe397       O408   1.954       .  S
Fe398       O401   2.053       .  S
Fe398       O405   2.078       .  S
Fe398       O409   2.080       .  S
Fe398       O414   2.069       .  S
Fe398       O408   1.962       .  S
Fe399       O417   2.100       .  S
Fe399       O404   2.102       .  S
Fe399       O411   2.094       .  S
Fe399       O400   2.105       .  S
Fe399       O408   1.973       .  S
O400        C407   1.279       .  A
O401        C415   1.263       .  A
O402        C407   1.274       .  A
O403        C406   1.263       .  A
O404        C416   1.275       .  A
O405        C418   1.270       .  A
C406        O411   1.271       .  A
C406       C1213   1.489       .  S
C407        C570   1.487       .  S
O409        C412   1.268       .  A
O410        C412   1.266       .  A
C412        C663   1.508       .  S
O413        C418   1.268       .  A
O414        C416   1.272       .  A
C415        O417   1.273       .  A
C415        C853   1.520       .  S
C416        C580   1.522       .  S
C418        C723   1.469       .  S
Fe419       O435   2.047       .  S
Fe419       O425   2.078       .  S
Fe419       O432   2.069       .  S
Fe419       O424   2.055       .  S
Fe419       O430   1.952       .  S
Fe420       O423   2.089       .  S
Fe420       O427   2.086       .  S
Fe420       O431   2.096       .  S
Fe420       O436   2.074       .  S
Fe420       O430   1.964       .  S
Fe421       O439   2.080       .  S
Fe421       O426   2.091       .  S
Fe421       O433   2.083       .  S
Fe421       O422   2.086       .  S
Fe421       O430   1.965       .  S
O422        C429   1.270       .  A
O423        C437   1.274       .  A
O424        C429   1.263       .  A
O425        C428   1.274       .  A
O426        C438   1.278       .  A
O427        C440   1.270       .  A
C428        O433   1.276       .  A
C428       C1130   1.489       .  S
C429       C1023   1.490       .  S
O431        C434   1.275       .  A
O432        C434   1.272       .  A
C434        C583   1.505       .  S
O435        C440   1.266       .  A
O436        C438   1.272       .  A
C437        O439   1.270       .  A
C437        C613   1.498   1_556  S
C438        C563   1.501   1_556  S
C440        C843   1.472       .  S
Fe441       O457   2.040       .  S
Fe441       O447   2.085       .  S
Fe441       O454   2.071       .  S
Fe441       O446   2.042       .  S
Fe441       O452   1.940       .  S
Fe442       O445   2.077       .  S
Fe442       O449   2.100       .  S
Fe442       O453   2.075       .  S
Fe442       O458   2.088       .  S
Fe442       O452   1.959       .  S
Fe443       O461   2.072       .  S
Fe443       O448   2.076       .  S
Fe443       O455   2.060       .  S
Fe443       O444   2.100       .  S
Fe443       O452   1.956       .  S
O444        C451   1.275       .  A
O445        C459   1.272       .  A
O446        C451   1.261       .  A
O447        C450   1.273       .  A
O448        C460   1.274   1_545  A
O449        C462   1.274       .  A
C450        O455   1.267       .  A
C450        C920   1.472       .  S
C451        C793   1.484       .  S
O453        C456   1.271       .  A
O454        C456   1.271       .  A
C456        C553   1.490       .  S
O457        C462   1.264       .  A
O458        C460   1.275   1_545  A
C459        O461   1.271       .  A
C459       C1223   1.484   1_545  S
C460        C573   1.481       .  S
C462        C683   1.472       .  S
Fe463       O479   2.044       .  S
Fe463       O469   2.082       .  S
Fe463       O476   2.076       .  S
Fe463       O468   2.049       .  S
Fe463       O474   1.938       .  S
Fe464       O467   2.081       .  S
Fe464       O471   2.097       .  S
Fe464       O475   2.085       .  S
Fe464       O480   2.108       .  S
Fe464       O474   1.953       .  S
Fe465       O483   2.092       .  S
Fe465       O470   2.078       .  S
Fe465       O477   2.061       .  S
Fe465       O466   2.106       .  S
Fe465       O474   1.953       .  S
O466        C473   1.274       .  A
O467        C481   1.272       .  A
O468        C473   1.261       .  A
O469        C472   1.275       .  A
O470        C482   1.277       .  A
O471        C484   1.272       .  A
C472        O477   1.270       .  A
C472        C640   1.468       .  S
C473        C593   1.495       .  S
O475        C478   1.277       .  A
O476        C478   1.274       .  A
C478        C533   1.488       .  S
O479        C484   1.263       .  A
O480        C482   1.278       .  A
C481        O483   1.273       .  A
C481        C883   1.501       .  S
C482        C540   1.513       .  S
C484       C1033   1.479       .  S
Fe485       O501   2.094       .  S
Fe485       O491   2.036       .  S
Fe485       O498   2.058       .  S
Fe485       O490   2.076       .  S
Fe485       O496   1.939       .  S
Fe486       O489   2.095       .  S
Fe486       O493   2.071       .  S
Fe486       O497   2.104       .  S
Fe486       O502   2.070       .  S
Fe486       O496   1.954       .  S
Fe487       O505   2.089       .  S
Fe487       O492   2.097   1_554  S
Fe487       O499   2.084       .  S
Fe487       O488   2.103       .  S
Fe487       O496   1.951       .  S
O488        C495   1.279       .  A
O489        C503   1.272   1_554  A
O490        C495   1.273       .  A
O491        C494   1.267       .  A
O492        C504   1.277       .  A
O493        C506   1.271       .  A
C494        O499   1.269       .  A
C494        C870   1.491       .  S
C495        C543   1.507       .  S
O497        C500   1.274       .  A
O498        C500   1.263       .  A
C500       C1173   1.499       .  S
O501        C506   1.278       .  A
O502        C504   1.274   1_554  A
C503        O505   1.272   1_556  A
C503        C693   1.515       .  S
C504        C550   1.499       .  S
C506        C983   1.480       .  S
Fe507       O523   2.078       .  S
Fe507       O513   2.051       .  S
Fe507       O520   2.073       .  S
Fe507       O512   2.083       .  S
Fe507       O518   1.945       .  S
Fe508       O511   2.094       .  S
Fe508       O515   2.078       .  S
Fe508       O519   2.106       .  S
Fe508       O524   2.073       .  S
Fe508       O518   1.957       .  S
Fe509       O527   2.075       .  S
Fe509       O514   2.104   1_565  S
Fe509       O521   2.103       .  S
Fe509       O510   2.074       .  S
Fe509       O518   1.957       .  S
O510        C517   1.270       .  A
O511        C525   1.272       .  A
O512        C517   1.274       .  A
O513        C516   1.266       .  A
O514        C526   1.280       .  A
O515        C528   1.273       .  A
C516        O521   1.276       .  A
C516        C603   1.479       .  S
C517        C560   1.495       .  S
O519        C522   1.275       .  A
O520        C522   1.267       .  A
C522        C783   1.515       .  S
O523        C528   1.275       .  A
O524        C526   1.276   1_565  A
C525        O527   1.269       .  A
C525       C1040   1.503   1_565  S
C526        C530   1.495       .  S
C528        C753   1.483       .  S
C529        C530   1.415       .  A
C529        C534   1.415       .  A
C529       Br536   1.929       .  S
C530        C531   1.415       .  A
C531        C532   1.412       .  A
C531       Br538   1.934       .  S
C532        C533   1.413       .  A
C532       Br537   1.931       .  S
C533        C534   1.410       .  A
C534       Br535   1.929       .  S
C539        C540   1.423       .  A
C539        C544   1.419       .  A
C539       Br546   1.936       .  S
C540        C541   1.422       .  A
C541        C542   1.416       .  A
C541       Br548   1.937       .  S
C542        C543   1.416       .  A
C542       Br547   1.936       .  S
C543        C544   1.416       .  A
C544       Br545   1.931       .  S
C549        C550   1.419       .  A
C549        C554   1.413       .  A
C549       Br556   1.934       .  S
C550        C551   1.420       .  A
C551        C552   1.412       .  A
C551       Br558   1.937       .  S
C552        C553   1.414       .  A
C552       Br557   1.935       .  S
C553        C554   1.412       .  A
C554       Br555   1.933       .  S
C559        C560   1.417       .  A
C559        C564   1.415       .  A
C559       Br566   1.934       .  S
C560        C561   1.409       .  A
C561        C562   1.410       .  A
C561       Br568   1.933       .  S
C562        C563   1.420       .  A
C562       Br567   1.934       .  S
C563        C564   1.418       .  A
C564       Br565   1.933       .  S
C569        C570   1.411       .  A
C569        C574   1.402       .  A
C569       Br576   1.918       .  S
C570        C571   1.410       .  A
C571        C572   1.418       .  A
C571       Br578   1.924       .  S
C572        C573   1.411       .  A
C572       Br577   1.924       .  S
C573        C574   1.405       .  A
C574       Br575   1.930       .  S
C579        C580   1.424       .  A
C579        C584   1.417       .  A
C579       Br586   1.934       .  S
C580        C581   1.428       .  A
C581        C582   1.416       .  A
C581       Br588   1.938       .  S
C582        C583   1.415       .  A
C582       Br587   1.936       .  S
C583        C584   1.414       .  A
C584       Br585   1.934       .  S
C589        C590   1.423       .  A
C589        C594   1.414       .  A
C589       Br596   1.929   1_554  S
C590        C591   1.417       .  A
C591        C592   1.414       .  A
C591       Br598   1.936       .  S
C592        C593   1.419       .  A
C592       Br597   1.935       .  S
C593        C594   1.406       .  A
C594       Br595   1.931       .  S
C599        C600   1.403       .  A
C599        C604   1.401       .  A
C599       Br606   1.930       .  S
C600        C601   1.408       .  A
C601        C602   1.412       .  A
C601       Br608   1.922       .  S
C602        C603   1.410       .  A
C602       Br607   1.923       .  S
C603        C604   1.409       .  A
C604       Br605   1.912       .  S
C609        C610   1.415       .  A
C609        C614   1.414       .  A
C609       Br616   1.933       .  S
C610        C611   1.421       .  A
C611        C612   1.416       .  A
C611       Br618   1.934       .  S
C612        C613   1.413       .  A
C612       Br617   1.933       .  S
C613        C614   1.415       .  A
C614       Br615   1.932   1_554  S
C619        C620   1.418       .  A
C619        C624   1.414       .  A
C619       Br626   1.934       .  S
C620        C621   1.423       .  A
C621        C622   1.409       .  A
C621       Br628   1.938       .  S
C622        C623   1.413       .  A
C622       Br627   1.937       .  S
C623        C624   1.416       .  A
C624       Br625   1.932       .  S
C629        C630   1.417       .  A
C629        C634   1.415       .  A
C629       Br636   1.934       .  S
C630        C631   1.417       .  A
C631        C632   1.411       .  A
C631       Br638   1.932       .  S
C632        C633   1.410       .  A
C632       Br637   1.931       .  S
C633        C634   1.418       .  A
C634       Br635   1.934       .  S
C639        C640   1.403       .  A
C639        C644   1.403       .  A
C639       Br646   1.929       .  S
C640        C641   1.408       .  A
C641        C642   1.410       .  A
C641       Br648   1.928       .  S
C642        C643   1.408       .  A
C642       Br647   1.920       .  S
C643        C644   1.410       .  A
C644       Br645   1.918       .  S
C649        C650   1.415       .  A
C649        C654   1.413       .  A
C649       Br656   1.927       .  S
C650        C651   1.414       .  A
C651        C652   1.412       .  A
C651       Br658   1.931       .  S
C652        C653   1.413       .  A
C652       Br657   1.931       .  S
C653        C654   1.417       .  A
C654       Br655   1.934       .  S
C659        C660   1.419       .  A
C659        C664   1.417       .  A
C659       Br666   1.934       .  S
C660        C661   1.420       .  A
C661        C662   1.413       .  A
C661       Br668   1.937   1_556  S
C662        C663   1.418       .  A
C662       Br667   1.935       .  S
C663        C664   1.420       .  A
C664       Br665   1.936       .  S
C669        C670   1.412       .  A
C669        C674   1.405       .  A
C669       Br676   1.934       .  S
C670        C671   1.409       .  A
C671        C672   1.414       .  A
C671       Br678   1.927       .  S
C672        C673   1.414       .  A
C672       Br677   1.928       .  S
C673        C674   1.418       .  A
C674       Br675   1.940       .  S
C679        C680   1.402       .  A
C679        C684   1.395       .  A
C679       Br686   1.926       .  S
C680        C681   1.411       .  A
C681        C682   1.414       .  A
C681       Br688   1.924       .  S
C682        C683   1.409       .  A
C682       Br687   1.926       .  S
C683        C684   1.410       .  A
C684       Br685   1.923       .  S
C689        C690   1.416       .  A
C689        C694   1.417       .  A
C689       Br696   1.933       .  S
C690        C691   1.418       .  A
C691        C692   1.417       .  A
C691       Br698   1.935       .  S
C692        C693   1.421       .  A
C692       Br697   1.934       .  S
C693        C694   1.423       .  A
C694       Br695   1.935   1_556  S
C699        C700   1.413       .  A
C699        C704   1.416       .  A
C699       Br706   1.928       .  S
C700        C701   1.413       .  A
C701        C702   1.405       .  A
C701       Br708   1.942       .  S
C702        C703   1.420       .  A
C702       Br707   1.937       .  S
C703        C704   1.413       .  A
C704       Br705   1.929       .  S
C709        C710   1.411       .  A
C709        C714   1.413       .  A
C709       Br716   1.932       .  S
C710        C711   1.411       .  A
C711        C712   1.402       .  A
C711       Br718   1.936       .  S
C712        C713   1.419       .  A
C712       Br717   1.942       .  S
C713        C714   1.417       .  A
C714       Br715   1.932       .  S
C719        C720   1.410       .  A
C719        C724   1.404       .  A
C719       Br726   1.920       .  S
C720        C721   1.407       .  A
C721        C722   1.409       .  A
C721       Br728   1.920       .  S
C722        C723   1.409       .  A
C722       Br727   1.930       .  S
C723        C724   1.404       .  A
C724       Br725   1.930       .  S
C729        C730   1.403       .  A
C729        C734   1.400       .  A
C729       Br736   1.925       .  S
C730        C731   1.412       .  A
C731        C732   1.416       .  A
C731       Br738   1.924       .  S
C732        C733   1.409       .  A
C732       Br737   1.922       .  S
C733        C734   1.410       .  A
C734       Br735   1.918       .  S
C739        C740   1.416       .  A
C739        C744   1.414       .  A
C739       Br746   1.935       .  S
C740        C741   1.424       .  A
C741        C742   1.415       .  A
C741       Br748   1.937       .  S
C742        C743   1.414       .  A
C742       Br747   1.936       .  S
C743        C744   1.418       .  A
C744       Br745   1.932       .  S
C749        C750   1.409       .  A
C749        C754   1.396       .  A
C749       Br756   1.924       .  S
C750        C751   1.410       .  A
C751        C752   1.417       .  A
C751       Br758   1.926       .  S
C752        C753   1.414       .  A
C752       Br757   1.921       .  S
C753        C754   1.405       .  A
C754       Br755   1.924       .  S
C759        C760   1.419       .  A
C759        C764   1.414       .  A
C759       Br766   1.935       .  S
C760        C761   1.417       .  A
C761        C762   1.413       .  A
C761       Br768   1.932       .  S
C762        C763   1.411       .  A
C762       Br767   1.931       .  S
C763        C764   1.416       .  A
C764       Br765   1.935       .  S
C769        C770   1.410       .  A
C769        C774   1.418       .  A
C769       Br776   1.926       .  S
C770        C771   1.412       .  A
C771        C772   1.395       .  A
C771       Br778   1.922       .  S
C772        C773   1.402       .  A
C772       Br777   1.927       .  S
C773        C774   1.415       .  A
C774       Br775   1.926       .  S
C779        C780   1.417       .  A
C779        C784   1.420       .  A
C779       Br786   1.935       .  S
C780        C781   1.417       .  A
C781        C782   1.417       .  A
C781       Br788   1.930       .  S
C782        C783   1.416       .  A
C782       Br787   1.933       .  S
C783        C784   1.424       .  A
C784       Br785   1.935       .  S
C789        C790   1.418       .  A
C789        C794   1.409       .  A
C789       Br796   1.938       .  S
C790        C791   1.422       .  A
C791        C792   1.412       .  A
C791       Br798   1.927       .  S
C792        C793   1.404       .  A
C792       Br797   1.932       .  S
C793        C794   1.416       .  A
C794       Br795   1.937       .  S
C799        C800   1.411       .  A
C799        C804   1.406       .  A
C799       Br806   1.918       .  S
C800        C801   1.411       .  A
C801        C802   1.407       .  A
C801       Br808   1.930       .  S
C802        C803   1.408       .  A
C802       Br807   1.925       .  S
C803        C804   1.401       .  A
C804       Br805   1.921       .  S
C809        C810   1.412       .  A
C809        C814   1.415       .  A
C809       Br816   1.931       .  S
C810        C811   1.413       .  A
C811        C812   1.407       .  A
C811       Br818   1.937       .  S
C812        C813   1.417       .  A
C812       Br817   1.938       .  S
C813        C814   1.415       .  A
C814       Br815   1.928       .  S
C819        C820   1.423       .  A
C819        C824   1.410       .  A
C819       Br826   1.940       .  S
C820        C821   1.412       .  A
C821        C822   1.414       .  A
C821       Br828   1.929       .  S
C822        C823   1.413       .  A
C822       Br827   1.929       .  S
C823        C824   1.413       .  A
C824       Br825   1.938       .  S
C829        C830   1.414       .  A
C829        C834   1.411       .  A
C829       Br836   1.936       .  S
C830        C831   1.412       .  A
C831        C832   1.411       .  A
C831       Br838   1.935       .  S
C832        C833   1.424       .  A
C832       Br837   1.939       .  S
C833        C834   1.421       .  A
C834       Br835   1.937       .  S
C839        C840   1.402       .  A
C839        C844   1.397       .  A
C839       Br846   1.926       .  S
C840        C841   1.411       .  A
C841        C842   1.413       .  A
C841       Br848   1.926       .  S
C842        C843   1.407       .  A
C842       Br847   1.926       .  S
C843        C844   1.407       .  A
C844       Br845   1.919       .  S
C849        C850   1.415       .  A
C849        C854   1.418       .  A
C849       Br856   1.933       .  S
C850        C851   1.417       .  A
C851        C852   1.413       .  A
C851       Br858   1.940       .  S
C852        C853   1.429       .  A
C852       Br857   1.942       .  S
C853        C854   1.423       .  A
C854       Br855   1.935       .  S
C859        C860   1.418       .  A
C859        C864   1.415       .  A
C859       Br866   1.934       .  S
C860        C861   1.417       .  A
C861        C862   1.413       .  A
C861       Br868   1.933       .  S
C862        C863   1.411       .  A
C862       Br867   1.931       .  S
C863        C864   1.415       .  A
C864       Br865   1.933       .  S
C869        C870   1.419       .  A
C869        C874   1.415       .  A
C869       Br876   1.929       .  S
C870        C871   1.409       .  A
C871        C872   1.399       .  A
C871       Br878   1.940       .  S
C872        C873   1.414       .  A
C872       Br877   1.918       .  S
C873        C874   1.413       .  A
C874       Br875   1.932       .  S
C879        C880   1.425       .  A
C879        C884   1.416       .  A
C879       Br886   1.936       .  S
C880        C881   1.417       .  A
C881        C882   1.414       .  A
C881       Br888   1.934       .  S
C882        C883   1.415       .  A
C882       Br887   1.932       .  S
C883        C884   1.414       .  A
C884       Br885   1.935       .  S
C889        C890   1.417       .  A
C889        C894   1.417       .  A
C889       Br896   1.932       .  S
C890        C891   1.415       .  A
C891        C892   1.420       .  A
C891       Br898   1.936       .  S
C892        C893   1.428       .  A
C892       Br897   1.938       .  S
C893        C894   1.417       .  A
C894       Br895   1.933       .  S
C899        C900   1.417       .  A
C899        C904   1.416       .  A
C899       Br906   1.935       .  S
C900        C901   1.412       .  A
C901        C902   1.410       .  A
C901       Br908   1.935       .  S
C902        C903   1.420       .  A
C902       Br907   1.936       .  S
C903        C904   1.421       .  A
C904       Br905   1.935       .  S
C909        C910   1.414       .  A
C909        C914   1.412       .  A
C909       Br916   1.939       .  S
C910        C911   1.414       .  A
C911        C912   1.417       .  A
C911       Br918   1.933       .  S
C912        C913   1.423       .  A
C912       Br917   1.933       .  S
C913        C914   1.426       .  A
C914       Br915   1.938       .  S
C919        C920   1.410       .  A
C919        C924   1.410       .  A
C919       Br926   1.925       .  S
C920        C921   1.406       .  A
C921        C922   1.402       .  A
C921       Br928   1.926       .  S
C922        C923   1.407       .  A
C922       Br927   1.924       .  S
C923        C924   1.406       .  A
C924       Br925   1.928       .  S
C929        C930   1.413       .  A
C929        C934   1.414       .  A
C929       Br936   1.930       .  S
C930        C931   1.412       .  A
C931        C932   1.399       .  A
C931       Br938   1.920       .  S
C932        C933   1.402       .  A
C932       Br937   1.929       .  S
C933        C934   1.411       .  A
C934       Br935   1.928       .  S
C939        C940   1.417       .  A
C939        C944   1.412       .  A
C939       Br946   1.938       .  S
C940        C941   1.413       .  A
C941        C942   1.414       .  A
C941       Br948   1.937       .  S
C942        C943   1.428       .  A
C942       Br947   1.940       .  S
C943        C944   1.422       .  A
C944       Br945   1.936       .  S
C949        C950   1.412       .  A
C949        C954   1.416       .  A
C949       Br956   1.924       .  S
C950        C951   1.404       .  A
C951        C952   1.398       .  A
C951       Br958   1.921       .  S
C952        C953   1.408       .  A
C952       Br957   1.926       .  S
C953        C954   1.411       .  A
C954       Br955   1.927       .  S
C959        C960   1.415       .  A
C959        C964   1.413       .  A
C959       Br966   1.930       .  S
C960        C961   1.413       .  A
C961        C962   1.414       .  A
C961       Br968   1.935       .  S
C962        C963   1.421       .  A
C962       Br967   1.936       .  S
C963        C964   1.411       .  A
C964       Br965   1.931       .  S
C969        C970   1.411       .  A
C969        C974   1.414       .  A
C969       Br976   1.928   1_455  S
C970        C971   1.411       .  A
C971        C972   1.412       .  A
C971       Br978   1.936       .  S
C972        C973   1.421       .  A
C972       Br977   1.935       .  S
C973        C974   1.414       .  A
C974       Br975   1.930       .  S
C979        C980   1.409       .  A
C979        C984   1.400       .  A
C979       Br986   1.921       .  S
C980        C981   1.409       .  A
C981        C982   1.416       .  A
C981       Br988   1.924       .  S
C982        C983   1.411       .  A
C982       Br987   1.924       .  S
C983        C984   1.402       .  A
C984       Br985   1.922       .  S
C989        C990   1.407       .  A
C989        C994   1.403       .  A
C989       Br996   1.925       .  S
C990        C991   1.403       .  A
C991        C992   1.409       .  A
C991       Br998   1.923       .  S
C992        C993   1.412       .  A
C992       Br997   1.917       .  S
C993        C994   1.409       .  A
C994       Br995   1.922       .  S
C999       C1000   1.405       .  A
C999       C1004   1.411       .  A
C999      Br1006   1.920       .  S
C1000      C1001   1.408       .  A
C1001      C1002   1.405       .  A
C1001     Br1008   1.920       .  S
C1002      C1003   1.408       .  A
C1002     Br1007   1.928       .  S
C1003      C1004   1.411       .  A
C1004     Br1005   1.917       .  S
C1009      C1010   1.423       .  A
C1009      C1014   1.412       .  A
C1009     Br1016   1.938       .  S
C1010      C1011   1.429       .  A
C1011      C1012   1.411       .  A
C1011     Br1018   1.939   1_455  S
C1012      C1013   1.412       .  A
C1012     Br1017   1.939       .  S
C1013      C1014   1.419       .  A
C1014     Br1015   1.937       .  S
C1019      C1020   1.410       .  A
C1019      C1024   1.411       .  A
C1019     Br1026   1.934       .  S
C1020      C1021   1.413       .  A
C1021      C1022   1.411       .  A
C1021     Br1028   1.926   1_565  S
C1022      C1023   1.411       .  A
C1022     Br1027   1.932       .  S
C1023      C1024   1.419       .  A
C1024     Br1025   1.936       .  S
C1029      C1030   1.404       .  A
C1029      C1034   1.394       .  A
C1029     Br1036   1.926       .  S
C1030      C1031   1.415       .  A
C1031      C1032   1.418       .  A
C1031     Br1038   1.923       .  S
C1032      C1033   1.410       .  A
C1032     Br1037   1.925       .  S
C1033      C1034   1.412       .  A
C1034     Br1035   1.927       .  S
C1039      C1040   1.420       .  A
C1039      C1044   1.418       .  A
C1039     Br1046   1.936       .  S
C1040      C1041   1.417       .  A
C1041      C1042   1.411       .  A
C1041     Br1048   1.930   1_545  S
C1042      C1043   1.412       .  A
C1042     Br1047   1.934       .  S
C1043      C1044   1.420       .  A
C1044     Br1045   1.936       .  S
C1049      C1050   1.417       .  A
C1049      C1054   1.415       .  A
C1049     Br1056   1.935       .  S
C1050      C1051   1.420       .  A
C1051      C1052   1.418       .  A
C1051     Br1058   1.935       .  S
C1052      C1053   1.422       .  A
C1052     Br1057   1.935       .  S
C1053      C1054   1.417       .  A
C1054     Br1055   1.932       .  S
C1059      C1060   1.419       .  A
C1059      C1064   1.410       .  A
C1059     Br1066   1.932       .  S
C1060      C1061   1.420       .  A
C1061      C1062   1.417       .  A
C1061     Br1068   1.934       .  S
C1062      C1063   1.415       .  A
C1062     Br1067   1.934       .  S
C1063      C1064   1.408       .  A
C1064     Br1065   1.932       .  S
C1069      C1070   1.417       .  A
C1069      C1074   1.408       .  A
C1069     Br1076   1.934       .  S
C1070      C1071   1.420       .  A
C1071      C1072   1.410       .  A
C1071     Br1078   1.935       .  S
C1072      C1073   1.412       .  A
C1072     Br1077   1.934       .  S
C1073      C1074   1.409       .  A
C1074     Br1075   1.932       .  S
C1079      C1080   1.408       .  A
C1079      C1084   1.412       .  A
C1079     Br1086   1.927       .  S
C1080      C1081   1.410       .  A
C1081      C1082   1.397       .  A
C1081     Br1088   1.917       .  S
C1082      C1083   1.400       .  A
C1082     Br1087   1.930       .  S
C1083      C1084   1.408       .  A
C1084     Br1085   1.919       .  S
C1089      C1090   1.415       .  A
C1089      C1094   1.417       .  A
C1089     Br1096   1.927       .  S
C1090      C1091   1.416       .  A
C1091      C1092   1.392       .  A
C1091     Br1098   1.932       .  S
C1092      C1093   1.398       .  A
C1092     Br1097   1.924       .  S
C1093      C1094   1.410       .  A
C1094     Br1095   1.927       .  S
C1099      C1100   1.416       .  A
C1099      C1104   1.418       .  A
C1099     Br1106   1.935       .  S
C1100      C1101   1.416       .  A
C1101      C1102   1.412       .  A
C1101     Br1108   1.933       .  S
C1102      C1103   1.417       .  A
C1102     Br1107   1.935       .  S
C1103      C1104   1.424       .  A
C1104     Br1105   1.935       .  S
C1109      C1110   1.409       .  A
C1109      C1114   1.409       .  A
C1109     Br1116   1.933       .  S
C1110      C1111   1.413       .  A
C1111      C1112   1.411       .  A
C1111     Br1118   1.929       .  S
C1112      C1113   1.418       .  A
C1112     Br1117   1.934       .  S
C1113      C1114   1.419       .  A
C1114     Br1115   1.934       .  S
C1119      C1120   1.420       .  A
C1119      C1124   1.413       .  A
C1119     Br1126   1.934       .  S
C1120      C1121   1.421       .  A
C1121      C1122   1.411       .  A
C1121     Br1128   1.936   1_655  S
C1122      C1123   1.413       .  A
C1122     Br1127   1.935       .  S
C1123      C1124   1.413       .  A
C1124     Br1125   1.934       .  S
C1129      C1130   1.410       .  A
C1129      C1134   1.406       .  A
C1129     Br1136   1.928       .  S
C1130      C1131   1.412       .  A
C1131      C1132   1.417       .  A
C1131     Br1138   1.931       .  S
C1132      C1133   1.417       .  A
C1132     Br1137   1.923       .  S
C1133      C1134   1.415       .  A
C1134     Br1135   1.932       .  S
C1139      C1140   1.418       .  A
C1139      C1144   1.405       .  A
C1139     Br1146   1.934       .  S
C1140      C1141   1.420       .  A
C1141      C1142   1.411       .  A
C1141     Br1148   1.934       .  S
C1142      C1143   1.412       .  A
C1142     Br1147   1.934       .  S
C1143      C1144   1.406       .  A
C1144     Br1145   1.932       .  S
C1149      C1150   1.416       .  A
C1149      C1154   1.407       .  A
C1149     Br1156   1.928       .  S
C1150      C1151   1.413       .  A
C1151      C1152   1.399       .  A
C1151     Br1158   1.936       .  S
C1152      C1153   1.409       .  A
C1152     Br1157   1.927       .  S
C1153      C1154   1.410       .  A
C1154     Br1155   1.935       .  S
C1159      C1160   1.417       .  A
C1159      C1164   1.415       .  A
C1159     Br1166   1.932   1_655  S
C1160      C1161   1.415       .  A
C1161      C1162   1.417       .  A
C1161     Br1168   1.933       .  S
C1162      C1163   1.420       .  A
C1162     Br1167   1.934       .  S
C1163      C1164   1.413       .  A
C1164     Br1165   1.931       .  S
C1169      C1170   1.410       .  A
C1169      C1174   1.412       .  A
C1169     Br1176   1.935       .  S
C1170      C1171   1.412       .  A
C1171      C1172   1.416       .  A
C1171     Br1178   1.928   1_545  S
C1172      C1173   1.414       .  A
C1172     Br1177   1.929       .  S
C1173      C1174   1.422       .  A
C1174     Br1175   1.936       .  S
C1179      C1180   1.410       .  A
C1179      C1184   1.396       .  A
C1179     Br1186   1.929       .  S
C1180      C1181   1.411       .  A
C1181      C1182   1.415       .  A
C1181     Br1188   1.926       .  S
C1182      C1183   1.411       .  A
C1182     Br1187   1.925       .  S
C1183      C1184   1.402       .  A
C1184     Br1185   1.920       .  S
C1189      C1190   1.410       .  A
C1189      C1194   1.411       .  A
C1189     Br1196   1.932       .  S
C1190      C1191   1.412       .  A
C1191      C1192   1.416       .  A
C1191     Br1198   1.936       .  S
C1192      C1193   1.425       .  A
C1192     Br1197   1.934       .  S
C1193      C1194   1.418       .  A
C1194     Br1195   1.932       .  S
C1199      C1200   1.416       .  A
C1199      C1204   1.408       .  A
C1199     Br1206   1.930       .  S
C1200      C1201   1.415       .  A
C1201      C1202   1.411       .  A
C1201     Br1208   1.934       .  S
C1202      C1203   1.416       .  A
C1202     Br1207   1.935       .  S
C1203      C1204   1.405       .  A
C1204     Br1205   1.929       .  S
C1209      C1210   1.418       .  A
C1209      C1214   1.419       .  A
C1209     Br1216   1.930       .  S
C1210      C1211   1.412       .  A
C1211      C1212   1.399       .  A
C1211     Br1218   1.929       .  S
C1212      C1213   1.413       .  A
C1212     Br1217   1.930       .  S
C1213      C1214   1.414       .  A
C1214     Br1215   1.929       .  S
C1219      C1220   1.410       .  A
C1219      C1224   1.410       .  A
C1219     Br1226   1.930       .  S
C1220      C1221   1.418       .  A
C1221      C1222   1.410       .  A
C1221     Br1228   1.935       .  S
C1222      C1223   1.411       .  A
C1222     Br1227   1.934       .  S
C1223      C1224   1.412       .  A
C1224     Br1225   1.928   1_565  S
C1229      C1230   1.407       .  A
C1229      C1234   1.400       .  A
C1229     Br1236   1.928       .  S
C1230      C1231   1.410       .  A
C1231      C1232   1.409       .  A
C1231     Br1238   1.921       .  S
C1232      C1233   1.406       .  A
C1232     Br1237   1.928       .  S
C1233      C1234   1.406       .  A
C1234     Br1235   1.918       .  S
C1239      C1240   1.412       .  A
C1239      C1244   1.413       .  A
C1239     Br1246   1.935       .  S
C1240      C1241   1.415       .  A
C1241      C1242   1.414       .  A
C1241     Br1248   1.927       .  S
C1242      C1243   1.409       .  A
C1242     Br1247   1.929       .  S
C1243      C1244   1.421       .  A
C1244     Br1245   1.936       .  S
