geometry optimzed in LAMMPS
_audit_creation_date              2020-12-01 
_audit_creation_method            'lammps2cif' 
_symmetry_space_group_name_H-M    'P1' 
_symmetry_Int_Tables_number       1 
_symmetry_cell_setting            triclinic 
loop_ 
_symmetry_equiv_pos_as_xyz 
  x,y,z 
_cell_length_a                    40.56403226 
_cell_length_b                    38.258527652630846 
_cell_length_c                    70.19672636187717 
_cell_angle_alpha                 90.01761390921948 
_cell_angle_beta                  89.72609795228215 
_cell_angle_gamma                 89.96155486161018 
loop_ 
_atom_site_label 
_atom_site_type_symbol 
_atom_site_fract_x 
_atom_site_fract_y 
_atom_site_fract_z 
_atom_site_charge 
N1          N  0.43886600  0.50399931  0.49961401    -0.37000
N2          N  0.98472298  0.48756341  0.47344930    -0.57600
N3          N  0.03825143  0.99940163  0.50123161    -0.37000
N4          N  0.99092327  0.00568295  0.53233829    -0.57600
C5          C  0.41969157  0.50845843  0.48411549     0.26500
C6          C  0.42156190  0.01477201  0.51522103     0.26500
C7          C  0.05495323  0.48761917  0.48535486     0.26500
C8          C  0.05866632  0.00789060  0.51573216     0.26500
C9          C  0.45944378  0.49063355  0.45895167     0.35200
C10         C  0.01026438  0.48687756  0.46105347     0.35200
C11         C  0.46580728  0.01141092  0.53971005     0.35200
C12         C  0.01861220  0.00352496  0.54281691     0.35200
C13         C  0.38937679  0.52195234  0.48956392    -0.22300
C14         C  0.38992896  0.02362992  0.50943952    -0.22300
C15         C  0.08684994  0.48005733  0.49115409    -0.22300
C16         C  0.08963050  0.01570057  0.50842251    -0.22300
C17         C  0.46771500  0.47508266  0.44176062    -0.23400
C18         C  0.99874462  0.48487484  0.44253589    -0.23400
C19         C  0.47701799  0.00991102  0.55830463    -0.23400
C20         C  0.01065009  0.00127167  0.56201156    -0.23400
C21         C  0.42701318  0.49598701  0.46567160    -0.18700
C22         C  0.43255413  0.01560230  0.53435853    -0.18700
C23         C  0.05079672  0.00760533  0.53546040    -0.18700
C24         C  0.04373683  0.48486173  0.46630660    -0.18700
H25         H  0.36849778  0.52743476  0.48049093     0.14200
H26         H  0.36982073  0.03316271  0.51820033     0.14200
H27         H  0.10714050  0.47073656  0.48246425     0.14200
H28         H  0.11152722  0.02286389  0.51625903     0.14200
H29         H  0.45113088  0.46492611  0.43107267     0.12500
H30         H  0.01318464  0.48303863  0.42956730     0.12500
H31         H  0.46233485  0.00968598  0.57121931     0.12500
H32         H  0.02747911  0.00012635  0.57391519     0.12500
H33         H  0.46076485  0.48993308  0.49991817     0.25700
H34         H  0.01493489  0.98861171  0.50255815     0.25700
N35         N  0.03767559  0.24598050  0.49999864    -0.37000
N36         N  0.49278240  0.24640651  0.53090463    -0.57600
N37         N  0.44056200  0.25420456  0.50285760    -0.37000
N38         N  0.48818281  0.26144617  0.47214181    -0.57600
C39         C  0.05758908  0.23410429  0.51399642     0.26500
C40         C  0.05489847  0.24430356  0.48346904     0.26500
C41         C  0.42294875  0.25476055  0.51926890     0.26500
C42         C  0.42055175  0.26581211  0.48882421     0.26500
C43         C  0.01813517  0.23850200  0.54138169     0.35200
C44         C  0.46686877  0.23610882  0.54172786     0.35200
C45         C  0.01108769  0.26463903  0.46137505     0.35200
C46         C  0.46047216  0.26282443  0.46160153     0.35200
C47         C  0.08791493  0.22491423  0.50619303    -0.22300
C48         C  0.08624068  0.23148888  0.48698594    -0.22300
C49         C  0.39131867  0.26662833  0.51565925    -0.22300
C50         C  0.38979178  0.27365852  0.49650922    -0.22300
C51         C  0.01029830  0.23824325  0.56063763    -0.23400
C52         C  0.47784063  0.21970543  0.55810318    -0.23400
C53         C  0.00030153  0.28116165  0.44497216    -0.23400
C54         C  0.46843895  0.26267609  0.44236804    -0.23400
C55         C  0.05005148  0.23340590  0.53375674    -0.18700
C56         C  0.04434374  0.25760092  0.46572506    -0.18700
C57         C  0.42838564  0.26732115  0.46910369    -0.18700
C58         C  0.43343206  0.24133701  0.53700757    -0.18700
H59         H  0.10945303  0.21534523  0.51358451     0.14200
H60         H  0.10613477  0.22793771  0.47684321     0.14200
H61         H  0.37116974  0.26919744  0.52573052     0.14200
H62         H  0.36804951  0.28256395  0.48907857     0.14200
H63         H  0.02704773  0.23585627  0.57252187     0.12500
H64         H  0.46303387  0.20865310  0.56946287     0.12500
H65         H  0.01519001  0.29126297  0.43338527     0.12500
H66         H  0.45176164  0.26445164  0.43042066     0.12500
H67         H  0.01540207  0.25880400  0.50189491     0.25700
H68         H  0.46328228  0.24226463  0.50104042     0.25700
C69         C  0.31046881  0.44461143  0.42825479     0.42000
N70         N  0.27137622  0.43503299  0.40843301     0.00900
C71         C  0.17285257  0.28782641  0.40403769    -0.07000
H72         H  0.30662430  0.26600885  0.39978037     0.06400
C73         C  0.30389728  0.32690184  0.33799393    -0.07300
Co74       Co  0.23438495  0.37025555  0.41864096     0.74200
N75         N  0.27197284  0.30782251  0.40539329    -0.26500
Co76       Co  0.23887514  0.30881134  0.38273179     0.74100
C77         C  0.31493924  0.29196645  0.34383378     0.42100
N78         N  0.27996216  0.41574951  0.35229898     0.00500
N79         N  0.27772860  0.31061977  0.36332691     0.00600
N80         N  0.17258887  0.32927276  0.42696282    -0.47300
H81         H  0.29658049  0.39585084  0.44587713     0.06400
N82         N  0.27041555  0.33188698  0.41880959     0.00900
N83         N  0.20662311  0.31143439  0.35982900     0.00700
C84         C  0.17405416  0.29608125  0.33724247     0.42300
N85         N  0.27687931  0.43884963  0.36618254    -0.25900
C86         C  0.17193765  0.41105895  0.42894076    -0.06900
N87         N  0.29582168  0.45696330  0.41231133    -0.47100
N88         N  0.18598726  0.28658987  0.35441549    -0.47300
C89         C  0.15474159  0.44161214  0.42195816     0.42000
N90         N  0.19876190  0.33207930  0.41588403     0.00900
N91         N  0.20564783  0.43727427  0.36284554    -0.26000
N92         N  0.26951038  0.40911914  0.42075565    -0.26500
N93         N  0.20887720  0.41459682  0.34878388     0.00500
H94         H  0.17996648  0.48620875  0.36516769     0.06400
H95         H  0.18869824  0.34408123  0.31929095     0.06500
N96         N  0.19967310  0.30842219  0.40224807    -0.26500
N97         N  0.28066738  0.33615192  0.35077721    -0.26100
N98         N  0.19875804  0.43408948  0.40538779     0.00900
C99         C  0.31296051  0.30165556  0.42600455     0.42300
C100        C  0.29753439  0.46541486  0.36282966    -0.07400
N101        N  0.20931538  0.33674887  0.34715775    -0.26100
H102        H  0.30829029  0.34005062  0.32458217     0.06500
N103        N  0.29440861  0.32917301  0.43135942    -0.47300
H104        H  0.29745443  0.48992336  0.37051822     0.06400
C105        C  0.17468979  0.45281643  0.33813573     0.42100
C106        C  0.29279838  0.41310260  0.43390407    -0.06900
Co107      Co  0.23805629  0.43714733  0.38576335     0.73800
N108        N  0.30149232  0.42590642  0.33912099    -0.47100
C109        C  0.15482055  0.30221951  0.42044649     0.42400
N110        N  0.17281842  0.45515987  0.40741742    -0.47100
Co111      Co  0.24496306  0.37578685  0.34943839     0.73900
C112        C  0.18945450  0.32957275  0.33250295    -0.07400
C113        C  0.29808719  0.28710028  0.40880324    -0.06900
N114        N  0.19847561  0.40828145  0.41782334    -0.26500
N115        N  0.29756619  0.28404250  0.35967120    -0.47200
H116        H  0.16656716  0.26613790  0.39486694     0.06400
C117        C  0.18411127  0.46196131  0.35759893    -0.07400
Cl118      Cl  0.23915340  0.37304493  0.38409736    -0.50400
C119        C  0.31385129  0.45708959  0.34478759     0.42200
H120        H  0.16575898  0.39402533  0.44071294     0.06400
N121        N  0.19104833  0.42308646  0.33374798    -0.47100
C122        C  0.32206291  0.05753538  0.57955105     0.42000
N123        N  0.27817499  0.06333508  0.59641129     0.00900
C124        C  0.17857145  0.21051784  0.59536774    -0.07000
H125        H  0.31110133  0.23074219  0.60716170     0.06400
C126        C  0.29382474  0.16718675  0.66891523    -0.07300
Co127      Co  0.24139861  0.12729684  0.58424956     0.74200
N128        N  0.27707531  0.18924484  0.59991315    -0.26500
Co129      Co  0.23950758  0.18835670  0.62046955     0.74100
C130        C  0.30712978  0.20182346  0.66449404     0.42100
N131        N  0.27323703  0.08149280  0.65294035     0.00500
N132        N  0.27398203  0.18576195  0.64229774     0.00600
N133        N  0.18143025  0.16874397  0.57260300    -0.47300
H134        H  0.30960924  0.10521286  0.56121924     0.06400
N135        N  0.27706774  0.16586099  0.58613161     0.00900
N136        N  0.20269014  0.18588361  0.64127688     0.00700
C137        C  0.16961297  0.20331635  0.66345184     0.42300
N138        N  0.27454860  0.05828447  0.63903751    -0.25900
C139        C  0.18127281  0.08467907  0.57068000    -0.06900
N140        N  0.30463349  0.04313932  0.59409962    -0.47100
N141        N  0.18372962  0.21230214  0.64667751    -0.47300
C142        C  0.16475163  0.05269421  0.57648077     0.42000
N143        N  0.20540873  0.16541931  0.58509093     0.00900
N144        N  0.20341033  0.05775138  0.63784565    -0.26000
N145        N  0.27753544  0.08942323  0.58413612    -0.26500
N146        N  0.20243315  0.08135431  0.65157815     0.00500
H147        H  0.18431992  0.00545028  0.63608280     0.06400
H148        H  0.17957289  0.15393376  0.68111491     0.06500
N149        N  0.20443176  0.18928522  0.59864246    -0.26500
N150        N  0.27335425  0.15970949  0.65459466    -0.26100
N151        N  0.20540501  0.06206423  0.59516424     0.00900
C152        C  0.32100349  0.19563159  0.58092457     0.42300
C153        C  0.29356479  0.03151608  0.64461751    -0.07400
N154        N  0.20201513  0.15978109  0.65355479    -0.26100
H155        H  0.29555744  0.15243682  0.68201378     0.06500
N156        N  0.30257772  0.16890924  0.57454240    -0.47300
H157        H  0.29479232  0.00645749  0.63750995     0.06400
C158        C  0.17165992  0.03957875  0.66200820     0.42100
C159        C  0.30395570  0.08767289  0.57285119    -0.06900
Co160      Co  0.24042237  0.05952967  0.61696659     0.73800
N161        N  0.28993145  0.07150584  0.66812219    -0.47100
C162        C  0.16337747  0.19646779  0.57808658     0.42400
N163        N  0.18093120  0.03987830  0.59177262    -0.47100
Co164      Co  0.23771418  0.12066804  0.65327207     0.73900
C165        C  0.18144897  0.16809938  0.66781973    -0.07400
C166        C  0.30403045  0.20956650  0.59783154    -0.06900
N167        N  0.20598880  0.08836587  0.58301271    -0.26500
N168        N  0.29375157  0.21139876  0.64769017    -0.47200
H169        H  0.17080476  0.23209660  0.60427917     0.06400
C170        C  0.18415814  0.03074580  0.64296943    -0.13400
Cl171      Cl  0.23967046  0.12392373  0.61878100    -0.50400
C172        C  0.30350914  0.04015827  0.66407733     0.42200
H173        H  0.17572880  0.10208487  0.55898994     0.06400
N174        N  0.18393395  0.07144226  0.66613918    -0.47100
N175        N  0.19614270  0.50633943  0.00361086    -0.37000
N176        N  0.24685436  0.00658027  0.97462731    -0.57600
N177        N  0.29567928  0.50609426  0.00629666    -0.37000
N178        N  0.24336167  0.50417602  0.03492931    -0.57600
C179        C  0.17691359  0.00629559  0.98767587     0.26500
C180        C  0.17735050  0.51293831  0.01915362     0.26500
C181        C  0.31494749  0.00918287  0.99034971     0.26500
C182        C  0.31256790  0.51056500  0.02270313     0.26500
C183        C  0.22070422  0.00581110  0.96265442     0.35200
C184        C  0.27448691  0.00577289  0.96369599     0.35200
C185        C  0.21580965  0.49371871  0.04415234     0.35200
C186        C  0.26895067  0.49292024  0.04551090     0.35200
C187        C  0.14575040  0.01539899  0.99429106    -0.22300
C188        C  0.14822785  0.52892220  0.01378512    -0.22300
C189        C  0.34475056  0.02026003  0.99788973    -0.22300
C190        C  0.34347989  0.52410864  0.01869706    -0.22300
C191        C  0.23175998  0.00467671  0.94397345    -0.23400
C192        C  0.26575509  0.00441502  0.94462485    -0.23400
C193        C  0.22385642  0.47654529  0.06088341    -0.23400
C194        C  0.25765868  0.47623126  0.06180211    -0.23400
C195        C  0.18713260  0.00862962  0.96838476    -0.18700
C196        C  0.18363603  0.49995341  0.03755361    -0.18700
C197        C  0.30231500  0.49842821  0.04076880    -0.18700
C198        C  0.30730960  0.00901298  0.97065875    -0.18700
H199        H  0.12546903  0.02606109  0.98618561     0.14200
H200        H  0.12791105  0.53651092  0.02295116     0.14200
H201        H  0.36550814  0.03146246  0.99032722     0.14200
H202        H  0.36297936  0.52981320  0.02868421     0.14200
H203        H  0.21687147  0.00431952  0.93122127     0.12500
H204        H  0.28215457  0.00389339  0.93242385     0.12500
H205        H  0.20725060  0.46512483  0.07125200     0.12500
H206        H  0.27222370  0.46473861  0.07306066     0.12500
H207        H  0.21699525  0.49046695  0.00332014     0.25700
H208        H  0.27373637  0.49231061  0.00492395     0.25700
N209        N  0.19333353  0.24722203  0.00396815    -0.37000
N210        N  0.24344464  0.24991081  0.03381389    -0.57600
N211        N  0.29340911  0.24752320  0.00407293    -0.37000
N212        N  0.24314881  0.24069517  0.97487258    -0.57600
C213        C  0.17522603  0.24226491  0.01993924     0.26500
C214        C  0.17450295  0.23706713  0.98911212     0.26500
C215        C  0.31136634  0.24267303  0.02006241     0.26500
C216        C  0.31169494  0.23551864  0.98928156     0.26500
C217        C  0.21667029  0.26000189  0.04387216     0.35200
C218        C  0.26980835  0.26044803  0.04396741     0.35200
C219        C  0.21643400  0.24386862  0.96348065     0.35200
C220        C  0.27014515  0.24336233  0.96356427     0.35200
C221        C  0.14460710  0.22885749  0.01525558    -0.22300
C222        C  0.14423037  0.22525460  0.99581078    -0.22300
C223        C  0.34129927  0.22742510  0.01549107    -0.22300
C224        C  0.34134422  0.22237276  0.99610918    -0.22300
C225        C  0.22597886  0.27613884  0.06067999    -0.23400
C226        C  0.25980139  0.27652962  0.06071358    -0.23400
C227        C  0.22647784  0.24854140  0.94477100    -0.23400
C228        C  0.26045521  0.24840091  0.94482573    -0.23400
C229        C  0.18396485  0.25393486  0.03824769    -0.18700
C230        C  0.18326102  0.23978878  0.96964503    -0.18700
C231        C  0.30313536  0.23797665  0.96974643    -0.18700
C232        C  0.30271815  0.25486215  0.03837901    -0.18700
H233        H  0.12439816  0.22293541  0.02484331     0.14200
H234        H  0.12370217  0.21554453  0.98757160     0.14200
H235        H  0.36107186  0.22080795  0.02514756     0.14200
H236        H  0.36124404  0.21066910  0.98801323     0.14200
H237        H  0.21007174  0.28668935  0.07169221     0.12500
H238        H  0.27519150  0.28753384  0.07174106     0.12500
H239        H  0.21095576  0.25126328  0.93236096     0.12500
H240        H  0.27618984  0.25103357  0.93241785     0.12500
H241        H  0.21530940  0.26111453  0.00316215     0.25700
H242        H  0.27191246  0.26224123  0.00310611     0.25700
C243        C  0.41677848  0.04904948  0.92133025     0.42000
N244        N  0.43746389  0.08112699  0.89917394     0.00900
C245        C  0.07048395  0.08084578  0.84242187    -0.07000
H246        H  0.10731486  0.10736463  0.90753920     0.06400
C247        C  0.04127998  0.21247271  0.91624571    -0.07300
Co248      Co  0.50168226  0.05979573  0.88273352     0.74200
N249        N  0.05894782  0.09374891  0.89824993    -0.26500
Co250      Co  0.05280232  0.13097026  0.87736433     0.74100
C251        C  0.07498051  0.19965193  0.92065138     0.42100
N252        N  0.45175065  0.18240951  0.90244078     0.00500
N253        N  0.05382103  0.16839477  0.89847531     0.00600
N254        N  0.03437930  0.03746990  0.84872507    -0.47300
H255        H  0.46332506  0.01355521  0.92130679     0.06400
N256        N  0.03851886  0.06775924  0.90195252     0.00900
N257        N  0.04630222  0.17155623  0.85750880     0.00700
C258        C  0.05332805  0.21281440  0.83696247     0.42300
N259        N  0.43203504  0.15561085  0.89936841    -0.25900
C260        C  0.46383977  0.02905245  0.84898581    -0.06900
N261        N  0.41127164  0.07622106  0.90986903    -0.47100
N262        N  0.06580942  0.18185269  0.84323623    -0.47300
C263        C  0.43468538  0.03725623  0.83787874     0.42000
N264        N  0.03082570  0.06366106  0.86074326     0.00900
N265        N  0.43693209  0.15989565  0.85806203    -0.26000
N266        N  0.46169307  0.05893755  0.90261940    -0.26500
N267        N  0.45652036  0.18681945  0.86122761     0.00500
H268        H  0.39636212  0.15305662  0.83834717     0.06400
H269        H  0.01045503  0.24456612  0.84970018     0.06500
N270        N  0.05102916  0.09000662  0.85730224    -0.26500
N271        N  0.02988097  0.19078321  0.90240561    -0.26100
N272        N  0.44317217  0.07844956  0.85821343     0.00900
C273        C  0.08120144  0.05945399  0.91994031     0.42300
C274        C  0.40587998  0.15760001  0.91064512    -0.07400
N275        N  0.02315436  0.19480766  0.86128742    -0.26100
H276        H  0.02882928  0.23559502  0.92146473     0.06500
N277        N  0.05150833  0.04558395  0.91464299    -0.47300
H278        H  0.38556211  0.13944244  0.91022617     0.06400
C279        C  0.42723571  0.20403233  0.83752546     0.42100
C280        C  0.45063275  0.03672902  0.91643313    -0.06900
Co281      Co  0.43720157  0.11877014  0.87821320     0.73800
N282        N  0.43852543  0.20470232  0.91501061    -0.47100
C283        C  0.05882456  0.04587781  0.83666020     0.42400
N284        N  0.42261961  0.06805631  0.84460704    -0.47100
Co285      Co  0.49124460  0.18852361  0.88284510     0.73900
C286        C  0.02536060  0.22117894  0.84904727    -0.07400
C287        C  0.08574875  0.09096064  0.90892229    -0.06900
N288        N  0.46685020  0.05545264  0.86124446    -0.26500
N289        N  0.08019752  0.17262576  0.90897759    -0.47200
H290        H  0.09142572  0.09554316  0.83721309     0.06400
C291        C  0.41684730  0.16852395  0.84339425    -0.07400
Cl292      Cl  0.49653926  0.12417230  0.88092979    -0.50400
C293        C  0.40940505  0.19016144  0.92084974     0.42200
H294        H  0.47900689  0.00580914  0.84895579     0.06400
N295        N  0.45174725  0.21296936  0.84934100    -0.47100
N296        N  0.11328425  0.37780512  0.77909571    -0.37000
N297        N  0.13099375  0.43086590  0.75141206    -0.57600
N298        N  0.14207983  0.37545623  0.72342360    -0.37000
N299        N  0.12882996  0.32245584  0.75202238    -0.57600
C300        C  0.11438188  0.40655599  0.79035660     0.26500
C301        C  0.11314193  0.34943642  0.79064063     0.26500
C302        C  0.15490118  0.40346519  0.71431169     0.26500
C303        C  0.15420884  0.34656389  0.71474895     0.26500
C304        C  0.11720643  0.45157998  0.76488329     0.35200
C305        C  0.13209413  0.45001322  0.73525213     0.35200
C306        C  0.11346484  0.30342938  0.76561143     0.35200
C307        C  0.12917127  0.30243994  0.73616600     0.35200
C308        C  0.11509744  0.39630694  0.80929479    -0.22300
C309        C  0.11431393  0.36028620  0.80947398    -0.22300
C310        C  0.17560197  0.39230499  0.69974537    -0.22300
C311        C  0.17522037  0.35632491  0.70004916    -0.22300
C312        C  0.10992598  0.48411991  0.75731487    -0.23400
C313        C  0.11928963  0.48310628  0.73853015    -0.23400
C314        C  0.10416155  0.27119342  0.75837818    -0.23400
C315        C  0.11416041  0.27056141  0.73971202    -0.23400
C316        C  0.11171953  0.44167185  0.78402178    -0.18700
C317        C  0.10883328  0.31430959  0.78464552    -0.18700
C318        C  0.14462476  0.31185333  0.71887537    -0.18700
C319        C  0.14621026  0.43863768  0.71787740    -0.18700
H320        H  0.11546924  0.41308100  0.82171062     0.14200
H321        H  0.11393242  0.34394083  0.82205457     0.14200
H322        H  0.18921048  0.40842042  0.68977583     0.14200
H323        H  0.18847276  0.33930855  0.69035717     0.14200
H324        H  0.09522713  0.00191174  0.76692425     0.12500
H325        H  0.11461868  0.00083714  0.73107066     0.12500
H326        H  0.09137224  0.25031540  0.76571674     0.12500
H327        H  0.11066849  0.24910981  0.72987505     0.12500
H328        H  0.10829590  0.37762941  0.76460106     0.25700
H329        H  0.12289744  0.37609972  0.73329549     0.25700
N330        N  0.35229934  0.42657567  0.75258403    -0.37000
N331        N  0.37225034  0.37300463  0.77974366    -0.57600
N332        N  0.35497944  0.31880682  0.75274048    -0.37000
N333        N  0.33837963  0.37223767  0.72474819    -0.57600
C334        C  0.36923989  0.44612047  0.76531194     0.26500
C335        C  0.35037935  0.44532034  0.73625764     0.26500
C336        C  0.37243062  0.30020785  0.76565027     0.26500
C337        C  0.35512879  0.30028914  0.73630026     0.26500
C338        C  0.37371646  0.40169851  0.79104898     0.35200
C339        C  0.37398329  0.34473704  0.79135950     0.35200
C340        C  0.32453827  0.40001448  0.71598899     0.35200
C341        C  0.32658398  0.34348619  0.71593035     0.35200
C342        C  0.37797528  0.47769382  0.75700568    -0.22300
C343        C  0.36615991  0.47714887  0.73866873    -0.22300
C344        C  0.38393022  0.26968171  0.75725367    -0.22300
C345        C  0.37299464  0.26972991  0.73874678    -0.22300
C346        C  0.37622063  0.39164556  0.80993605    -0.23400
C347        C  0.37604165  0.35566265  0.81016071    -0.23400
C348        C  0.30350574  0.38886064  0.70171092    -0.23400
C349        C  0.30481968  0.35297055  0.70166637    -0.23400
C350        C  0.37606316  0.43666781  0.78440209    -0.18700
C351        C  0.33319600  0.43514317  0.71963134    -0.18700
C352        C  0.33758174  0.30914220  0.71961292    -0.18700
C353        C  0.37716217  0.30953424  0.78498266    -0.18700
H354        H  0.39138719  0.99903794  0.76532975     0.14200
H355        H  0.36846308  0.99819352  0.73021362     0.14200
H356        H  0.39877062  0.24945156  0.76373773     0.14200
H357        H  0.37757499  0.24946425  0.72830100     0.14200
H358        H  0.37844157  0.40851076  0.82224532     0.12500
H359        H  0.37804253  0.33946047  0.82273176     0.12500
H360        H  0.28912253  0.40489726  0.69214350     0.12500
H361        H  0.29163115  0.33587278  0.69207131     0.12500
H362        H  0.33995471  0.40331615  0.75545244     0.25700
H363        H  0.34074941  0.34087911  0.75557509     0.25700
N364        N  0.13314424  0.12560796  0.27882516    -0.37000
N365        N  0.12352880  0.07187994  0.24999635    -0.57600
N366        N  0.11157648  0.12555531  0.22208442    -0.37000
N367        N  0.12450272  0.17921084  0.25007932    -0.57600
C368        C  0.14641620  0.09719197  0.28731137     0.26500
C369        C  0.14560014  0.15413027  0.28761046     0.26500
C370        C  0.11546317  0.09684933  0.21102634     0.26500
C371        C  0.11752791  0.15379875  0.21099618     0.26500
C372        C  0.12231951  0.05258814  0.26608691     0.35200
C373        C  0.10895375  0.05261758  0.23627037     0.35200
C374        C  0.12221318  0.19857969  0.26609784     0.35200
C375        C  0.11188425  0.19891441  0.23592196     0.35200
C376        C  0.16775251  0.10778511  0.30157884    -0.22300
C377        C  0.16715991  0.14378279  0.30180351    -0.22300
C378        C  0.12450718  0.10691628  0.19276611    -0.22300
C379        C  0.12586438  0.14291275  0.19275485    -0.22300
C380        C  0.10666942  0.02105237  0.26266358    -0.23400
C381        C  0.09788344  0.02120207  0.24378444    -0.23400
C382        C  0.10779744  0.23061238  0.26217940    -0.23400
C383        C  0.10113430  0.23079968  0.24302690    -0.23400
C384        C  0.13768873  0.06216228  0.28330751    -0.18700
C385        C  0.13652817  0.18903191  0.28359996    -0.18700
C386        C  0.11212176  0.18892008  0.21656420    -0.18700
C387        C  0.10835488  0.06219624  0.21682230    -0.18700
H388        H  0.18207337  0.09131928  0.31095764     0.14200
H389        H  0.18099830  0.16039384  0.31134249     0.14200
H390        H  0.12917710  0.09009722  0.18065110     0.14200
H391        H  0.13163687  0.15925470  0.18060777     0.14200
H392        H  0.11428027  0.49545063  0.27060030     0.12500
H393        H  0.09932201  0.49566762  0.23416152     0.12500
H394        H  0.10306440  0.25181375  0.27203400     0.12500
H395        H  0.08990558  0.25210720  0.23527760     0.12500
H396        H  0.11394620  0.12551769  0.26902068     0.25700
H397        H  0.10109020  0.12597555  0.23565974     0.25700
N398        N  0.37664076  0.06873271  0.25628803    -0.37000
N399        N  0.35681430  0.12149045  0.28406586    -0.57600
N400        N  0.37345925  0.17597732  0.25707322    -0.37000
N401        N  0.38904603  0.12358400  0.22834601    -0.57600
C402        C  0.36059323  0.04883622  0.26932622     0.26500
C403        C  0.37859540  0.04996259  0.23997449     0.26500
C404        C  0.35666836  0.19418157  0.27050910     0.26500
C405        C  0.37324898  0.19533998  0.24095998     0.26500
C406        C  0.35883309  0.09279672  0.29524334     0.35200
C407        C  0.35823637  0.14944897  0.29585312     0.35200
C408        C  0.40271347  0.09595965  0.21920137     0.35200
C409        C  0.40055899  0.15263990  0.21955090     0.35200
C410        C  0.35214876  0.01708264  0.26114887    -0.22300
C411        C  0.36363884  0.01773402  0.24267403    -0.22300
C412        C  0.34517523  0.22518948  0.26272595    -0.22300
C413        C  0.35584507  0.22601771  0.24410420    -0.22300
C414        C  0.36178904  0.10254253  0.31417204    -0.23400
C415        C  0.36159065  0.13843130  0.31455279    -0.23400
C416        C  0.42305657  0.10757055  0.20458734    -0.23400
C417        C  0.42164613  0.14345023  0.20479338    -0.23400
C418        C  0.35527440  0.05803560  0.28866784    -0.18700
C419        C  0.39525043  0.06048138  0.22312875    -0.18700
C420        C  0.39063467  0.18717644  0.22403550    -0.18700
C421        C  0.35391220  0.18453081  0.28991768    -0.18700
H422        H  0.33498456  0.50122021  0.27041729     0.14200
H423        H  0.35306059  0.50093740  0.23426022     0.14200
H424        H  0.33095476  0.24539266  0.26976512     0.14200
H425        H  0.35156098  0.24699468  0.23407311     0.14200
H426        H  0.36380115  0.08554291  0.32643298     0.12500
H427        H  0.36347161  0.15451007  0.32718249     0.12500
H428        H  0.43739278  0.09188446  0.19474904     0.12500
H429        H  0.43464569  0.16074033  0.19515325     0.12500
H430        H  0.38871262  0.09220187  0.25895809     0.25700
H431        H  0.38778620  0.15382540  0.25943645     0.25700
C432        C  0.41243117  0.44574337  0.08328550     0.42000
N433        N  0.45439389  0.43662053  0.10118269     0.00900
C434        C  0.05514655  0.28558172  0.09821315    -0.07000
H435        H  0.41875636  0.26795155  0.11152644     0.06400
C436        C  0.44185925  0.33108298  0.17574861    -0.07300
Co437      Co  0.48867116  0.37143104  0.08877812     0.74200
N438        N  0.45183612  0.31091702  0.10521315    -0.26500
Co439      Co  0.49054267  0.31065120  0.12492199     0.74100
C440        C  0.42692044  0.29722403  0.17124018     0.42100
N441        N  0.46135553  0.41755847  0.15815671     0.00500
N442        N  0.45780156  0.31385144  0.14787049     0.00600
N443        N  0.05386991  0.32739716  0.07545940    -0.47300
H444        H  0.42375462  0.39716122  0.06516238     0.06400
N445        N  0.45202028  0.33446850  0.09152349     0.00900
N446        N  0.03441096  0.31163355  0.14335513     0.00700
C447        C  0.07283729  0.29392199  0.16205658     0.42300
N448        N  0.45934298  0.44029452  0.14402860    -0.25900
C449        C  0.05642964  0.41137175  0.07399097    -0.06900
N450        N  0.42966771  0.45887575  0.09822077    -0.47100
N451        N  0.05492011  0.28552263  0.14659004    -0.47300
C452        C  0.07410574  0.44270524  0.07967491     0.42000
N453        N  0.52335855  0.33219930  0.08883988     0.00900
N454        N  0.03624291  0.43960922  0.14041276    -0.26000
N455        N  0.45408414  0.41046293  0.08898771    -0.26500
N456        N  0.03828657  0.41656589  0.15432822     0.00500
H457        H  0.05892520  0.48961065  0.13578671     0.06400
H458        H  0.06653924  0.34224421  0.18127367     0.06500
N459        N  0.52454835  0.30855835  0.10243092    -0.26500
N460        N  0.46061431  0.33912614  0.16057609    -0.26100
N461        N  0.52738291  0.43494803  0.09896627     0.00900
C462        C  0.40869712  0.30432240  0.08584507     0.42300
C463        C  0.43779265  0.46536768  0.14898673    -0.07400
N464        N  0.03747032  0.33728487  0.15580423    -0.26100
H465        H  0.44201241  0.34500542  0.18915887     0.06500
N466        N  0.42697240  0.33142269  0.07979957    -0.47300
H467        H  0.43411945  0.48954009  0.14129451     0.06400
C468        C  0.07390977  0.45633680  0.16150602     0.42100
C469        C  0.42893834  0.41411856  0.07709779    -0.06900
Co470      Co  0.49283271  0.43882761  0.12127108     0.73800
N471        N  0.44257512  0.42626859  0.17287355    -0.47100
C472        C  0.07087978  0.29891794  0.08091545     0.42400
N473        N  0.05833367  0.45623256  0.09502906    -0.47100
Co474      Co  0.49684434  0.37784321  0.15806886     0.73900
C475        C  0.06139163  0.32860616  0.16812123    -0.07400
C476        C  0.42517517  0.29029160  0.10283698    -0.06900
N477        N  0.52517561  0.40884330  0.08677903    -0.26500
N478        N  0.43807988  0.28840308  0.15371652    -0.47200
H479        H  0.06204093  0.26376763  0.10714221     0.06400
C480        C  0.05795049  0.46521670  0.14355862    -0.07400
Cl481      Cl  0.49214819  0.37474043  0.12333446    -0.50400
C482        C  0.42680083  0.45618898  0.16825664     0.42200
H483        H  0.06112104  0.39343048  0.06240228     0.06400
N484        N  0.06014611  0.42589880  0.16737983    -0.47100
C485        C  0.39478170  0.03591025  0.18979009    -0.13800
C486        C  0.40465859  0.03311209  0.20889580     0.08400
C487        C  0.42338876  0.00395283  0.21445783    -0.13800
C488        C  0.42506015  0.47840963  0.20173473    -0.13800
C489        C  0.41504648  0.48156265  0.18267339     0.08400
C490        C  0.39547572  0.51021881  0.17737939    -0.13800
H491        H  0.37996772  0.05787888  0.18519448     0.12400
H492        H  0.43134490  0.00120683  0.22908926     0.12400
H493        H  0.44025776  0.45666751  0.20622325     0.12400
H494        H  0.38719909  0.51306894  0.16281831     0.12400
C495        C  0.38822211  0.21518994  0.19158011    -0.13800
C496        C  0.39875758  0.21620250  0.21060098     0.08400
C497        C  0.41710854  0.24510344  0.21688454    -0.13800
C498        C  0.42523288  0.27219368  0.20432265    -0.13800
C499        C  0.41553765  0.27067118  0.18514040     0.08400
C500        C  0.39678938  0.24202394  0.17893331    -0.13800
H501        H  0.37370174  0.19338845  0.18648669     0.12400
H502        H  0.42551971  0.24642060  0.23149025     0.12400
H503        H  0.44004692  0.29366678  0.20950601     0.12400
H504        H  0.38899151  0.24028479  0.16422762     0.12400
C505        C  0.11534969  0.00242736  0.20177702    -0.13800
C506        C  0.09991956  0.03542299  0.20207610     0.08400
C507        C  0.07551061  0.04261327  0.18850196    -0.13800
C508        C  0.06656949  0.51334577  0.17811862    -0.13800
C509        C  0.08548397  0.48310261  0.17501706     0.08400
C510        C  0.11514735  0.47875550  0.18491575    -0.13800
H511        H  0.13457086  0.99632497  0.21190160     0.12400
H512        H  0.06301700  0.06764574  0.18847235     0.12400
H513        H  0.04342363  0.51706546  0.17075490     0.12400
H514        H  0.13009850  0.45565473  0.18262863     0.12400
C515        C  0.12073853  0.24784704  0.20088186    -0.13800
C516        C  0.10435806  0.21541494  0.20165980     0.08400
C517        C  0.07898288  0.20867965  0.18866944    -0.13800
C518        C  0.06973208  0.23386586  0.17541088    -0.13800
C519        C  0.08504958  0.26676995  0.17514896     0.08400
C520        C  0.11077205  0.27357974  0.18790253    -0.13800
H521        H  0.14062904  0.25351107  0.21064284     0.12400
H522        H  0.06576707  0.18409338  0.18907389     0.12400
H523        H  0.04965463  0.22798789  0.16581533     0.12400
H524        H  0.12299647  0.29873900  0.18784825     0.12400
C525        C  0.10554577  0.02167930  0.81671692    -0.13800
C526        C  0.07298808  0.01962083  0.82346241     0.08400
C527        C  0.05373568  0.99038938  0.81852643    -0.13800
C528        C  0.06806135  0.46591027  0.80533760    -0.13800
C529        C  0.09991942  0.46874024  0.79776189     0.08400
C530        C  0.11853693  0.99485555  0.80525107    -0.13800
H531        H  0.12100249  0.04364418  0.82049236     0.12400
H532        H  0.02849573  0.98807987  0.82348470     0.12400
H533        H  0.05247397  0.44405636  0.80149076     0.12400
H534        H  0.14362759  0.99686283  0.80003118     0.12400
C535        C  0.05061373  0.26792164  0.81807973    -0.13800
C536        C  0.06831194  0.23762946  0.82316548     0.08400
C537        C  0.10000120  0.23263394  0.81548055    -0.13800
C538        C  0.11377370  0.25784121  0.80323810    -0.13800
C539        C  0.09601384  0.28829991  0.79858360     0.08400
C540        C  0.06435916  0.29295585  0.80608027    -0.13800
H541        H  0.53639503  0.27432728  0.82695613     0.12400
H542        H  0.11412015  0.20953088  0.81903108     0.12400
H543        H  0.13812511  0.25356652  0.79728977     0.12400
H544        H  0.56252675  0.31640307  0.80625560     0.12400
C545        C  0.43611090  0.98373667  0.81753509    -0.13800
C546        C  0.41862177  0.01314382  0.82418045     0.08400
C547        C  0.38564787  0.51691260  0.81669115    -0.13800
C548        C  0.37131228  0.49168841  0.80461732    -0.13800
C549        C  0.39029794  0.46379864  0.79734924     0.08400
C550        C  0.42130939  0.95957434  0.80543428    -0.13800
H551        H  0.46142083  0.97919322  0.82162201     0.12400
H552        H  0.37043154  0.53763875  0.82249049     0.12400
H553        H  0.34541050  0.49366080  0.80111276     0.12400
H554        H  0.43539281  0.93717046  0.80058867     0.12400
C555        C  0.38466191  0.22368370  0.81312785    -0.13800
C556        C  0.41367896  0.22952636  0.82351199     0.08400
C557        C  0.43037258  0.26149562  0.82093528    -0.13800
C558        C  0.41846110  0.28705050  0.80857155    -0.13800
C559        C  0.38910948  0.28187752  0.79853032     0.08400
C560        C  0.37241732  0.24971434  0.80079913    -0.13800
H561        H  0.37132724  0.19934425  0.81468160     0.12400
H562        H  0.45298764  0.26694253  0.82851292     0.12400
H563        H  0.43235411  0.31100725  0.80679500     0.12400
H564        H  0.34992262  0.24479217  0.79300108     0.12400
C565        C  0.14425686  0.29906837  0.04819020    -0.13800
C566        C  0.15695161  0.26547407  0.05083181     0.08400
C567        C  0.14243972  0.24292848  0.06419838    -0.13800
C568        C  0.11468165  0.25388257  0.07455025    -0.13800
C569        C  0.10132807  0.28729155  0.07141614     0.08400
C570        C  0.11667230  0.30989504  0.05837056    -0.13800
H571        H  0.15532214  0.31660443  0.03786583     0.12400
H572        H  0.15204120  0.21677285  0.06619632     0.12400
H573        H  0.10316619  0.23600605  0.08450463     0.12400
H574        H  0.10707861  0.33589387  0.05580968     0.12400
C575        C  0.33641564  0.24953524  0.06850588    -0.13800
C576        C  0.32963031  0.26633063  0.05113351     0.08400
C577        C  0.34818028  0.29546036  0.04572564    -0.13800
C578        C  0.37329226  0.30766832  0.05731443    -0.13800
C579        C  0.38082460  0.29079845  0.07455562     0.08400
C580        C  0.36206465  0.26166319  0.08017141    -0.13800
H581        H  0.32201649  0.22710794  0.07291920     0.12400
H582        H  0.34302263  0.30892765  0.03248959     0.12400
H583        H  0.38702825  0.33035336  0.05258710     0.12400
H584        H  0.36722092  0.24834782  0.09343114     0.12400
C585        C  0.15747996  0.20136888  0.94542088    -0.13800
C586        C  0.15684160  0.23294334  0.95537843     0.08400
C587        C  0.12874377  0.25460399  0.95388952    -0.13800
C588        C  0.10157038  0.24439457  0.94272407    -0.13800
C589        C  0.10220782  0.21234002  0.93299600     0.08400
C590        C  0.13063646  0.19119405  0.93447470    -0.13800
H591        H  0.17836099  0.18386334  0.94671714     0.12400
H592        H  0.12753875  0.27885779  0.96181645     0.12400
H593        H  0.08019753  0.26125973  0.94182399     0.12400
H594        H  0.13214219  0.16615289  0.92732711     0.12400
C595        C  0.32482253  0.20201401  0.94290966    -0.13800
C596        C  0.32934324  0.23012628  0.95529782     0.08400
C597        C  0.35997786  0.24769218  0.95514414    -0.13800
C598        C  0.38613141  0.23583519  0.94353305    -0.13800
C599        C  0.38179963  0.20658061  0.93173666     0.08400
C600        C  0.35033617  0.19081296  0.93114541    -0.13800
H601        H  0.30173194  0.18779215  0.94279605     0.12400
H602        H  0.36405008  0.26954418  0.96465155     0.12400
H603        H  0.40986974  0.24866887  0.94427601     0.12400
H604        H  0.34505979  0.16893488  0.92196905     0.12400
C605        C  0.14751126  0.49971878  0.06703236    -0.13800
C606        C  0.15506445  0.48710204  0.04872065     0.08400
C607        C  0.13564220  0.46074842  0.04072965    -0.13800
C608        C  0.10932259  0.44679410  0.05082489    -0.13800
C609        C  0.10173035  0.45882998  0.06921862     0.08400
C610        C  0.12085818  0.48562320  0.07725706    -0.13800
H611        H  0.16234084  0.52011676  0.07338333     0.12400
H612        H  0.14115704  0.45065257  0.02664230     0.12400
H613        H  0.09497045  0.42655407  0.04404423     0.12400
H614        H  0.11547591  0.49525958  0.09144272     0.12400
C615        C  0.33614104  0.44996313  0.05310060    -0.13800
C616        C  0.32808291  0.48543621  0.05383231     0.08400
C617        C  0.34606688  0.50790736  0.06573518    -0.13800
C618        C  0.37296074  0.49503125  0.07616105    -0.13800
C619        C  0.38195435  0.45966828  0.07466434     0.08400
C620        C  0.36264329  0.43718308  0.06344398    -0.13800
H621        H  0.32238621  0.43230988  0.04405042     0.12400
H622        H  0.34000092  0.53544709  0.06640031     0.12400
H623        H  0.38742403  0.51283184  0.08471561     0.12400
H624        H  0.36831274  0.40962591  0.06227706     0.12400
C625        C  0.10991821  0.00898666  0.93706524    -0.13800
C626        C  0.10761339  0.04464080  0.93239537     0.08400
C627        C  0.13265407  0.06727593  0.93890390    -0.13800
C628        C  0.15927227  0.05488575  0.94946829    -0.13800
C629        C  0.16164839  0.01950467  0.95419787     0.08400
C630        C  0.13665018  0.99655645  0.94800090    -0.13800
H631        H  0.09124842  0.99085226  0.93225659     0.12400
H632        H  0.13161728  0.09505026  0.93609569     0.12400
H633        H  0.17750526  0.07325855  0.95460496     0.12400
H634        H  0.12712979  0.48108803  0.96622219     0.12400
C635        C  0.36308862  0.99508718  0.95562202    -0.13800
C636        C  0.33486176  0.01668026  0.95700797     0.08400
C637        C  0.33443567  0.04810582  0.94692715    -0.13800
C638        C  0.36128219  0.05788557  0.93572062    -0.13800
C639        C  0.38971045  0.03664441  0.93414746     0.08400
C640        C  0.39035396  0.00496653  0.94424003    -0.13800
H641        H  0.36416304  0.97091816  0.96361771     0.12400
H642        H  0.31349767  0.06559335  0.94809188     0.12400
H643        H  0.35966395  0.08268070  0.92835205     0.12400
H644        H  0.41169848  0.98803767  0.94335837     0.12400
C645        C  0.17697479  0.01903193  0.69560994    -0.13800
C646        C  0.16491271  0.01355714  0.67709347     0.08400
C647        C  0.14106492  0.48775586  0.67109234    -0.13800
C648        C  0.13639822  0.46213694  0.68505635    -0.13800
C649        C  0.15229423  0.46491109  0.70273072     0.08400
C650        C  0.17208545  0.99405203  0.70981206    -0.13800
H651        H  0.19080857  0.04236650  0.69906411     0.12400
H652        H  0.12872608  0.48521534  0.65751360     0.12400
H653        H  0.12019925  0.44029127  0.68217642     0.12400
H654        H  0.18206096  0.99861710  0.72388175     0.12400
C655        C  0.13714578  0.28588658  0.68634045    -0.13800
C656        C  0.15112243  0.28399305  0.70457171     0.08400
C657        C  0.17045265  0.25490642  0.70939557    -0.13800
C658        C  0.17551503  0.22799855  0.69626622    -0.13800
C659        C  0.16175072  0.22998592  0.67795537     0.08400
C660        C  0.14266328  0.25919646  0.67307386    -0.13800
H661        H  0.12197358  0.30802723  0.68242024     0.12400
H662        H  0.18158365  0.25308693  0.72335831     0.12400
H663        H  0.19099440  0.20618621  0.70029049     0.12400
H664        H  0.13207689  0.26133151  0.65898483     0.12400
C665        C  0.32836777  0.98341140  0.67432541    -0.13800
C666        C  0.31129760  0.01418580  0.67895496     0.08400
C667        C  0.30060997  0.01943258  0.69783051    -0.13800
C668        C  0.30650466  0.49182090  0.71028434    -0.13800
C669        C  0.32513309  0.46231848  0.70514751     0.08400
C670        C  0.33652289  0.45912992  0.68628280    -0.13800
H671        H  0.33687875  0.97879423  0.65989779     0.12400
H672        H  0.28707573  0.04276525  0.70177388     0.12400
H673        H  0.29738825  0.49474559  0.72472648     0.12400
H674        H  0.35120668  0.43675615  0.68205296     0.12400
C675        C  0.33461881  0.25789600  0.67322602    -0.13800
C676        C  0.31706551  0.22796909  0.67881632     0.08400
C677        C  0.30677619  0.22468932  0.69787482    -0.13800
C678        C  0.31336739  0.25113047  0.71100718    -0.13800
C679        C  0.33076181  0.28113863  0.70543703     0.08400
C680        C  0.34167260  0.28416825  0.68647530    -0.13800
H681        H  0.34265200  0.26101664  0.65858607     0.12400
H682        H  0.29263817  0.20228966  0.70256152     0.12400
H683        H  0.30459691  0.24838242  0.72552935     0.12400
H684        H  0.35537200  0.30700547  0.68193175     0.12400
C685        C  0.17710384  0.47626749  0.30494682    -0.13800
C686        C  0.16505415  0.47883035  0.32368601     0.08400
C687        C  0.14324204  0.01182318  0.32981915    -0.13800
C688        C  0.13488286  0.03736327  0.31643282    -0.13800
C689        C  0.14563395  0.03442190  0.29744998     0.08400
C690        C  0.17099421  0.50288556  0.29182500    -0.13800
H691        H  0.19215642  0.45426175  0.30058524     0.12400
H692        H  0.13505148  0.01491909  0.34442775     0.12400
H693        H  0.12025335  0.05962252  0.32090180     0.12400
H694        H  0.18122447  0.50075381  0.27758957     0.12400
C695        C  0.17265421  0.27190935  0.30422363    -0.13800
C696        C  0.16229278  0.27014823  0.32330803     0.08400
C697        C  0.14275799  0.24187916  0.32929008    -0.13800
C698        C  0.13387205  0.21566916  0.31638097    -0.13800
C699        C  0.14489971  0.21711971  0.29739915     0.08400
C700        C  0.16435047  0.24546037  0.29146927    -0.13800
H701        H  0.18821476  0.29301156  0.29925149     0.12400
H702        H  0.13460915  0.23998450  0.34397096     0.12400
H703        H  0.11872455  0.19408669  0.32120900     0.12400
H704        H  0.17342478  0.24688409  0.27695081     0.12400
C705        C  0.35253370  0.47701987  0.31902367    -0.13800
C706        C  0.32571607  0.48382020  0.33116581     0.08400
C707        C  0.30551946  0.01209390  0.32717768    -0.13800
C708        C  0.31580737  0.03671058  0.31374105    -0.13800
C709        C  0.34405587  0.03076188  0.30252746     0.08400
C710        C  0.36133666  0.99910291  0.30475464    -0.13800
H711        H  0.36514482  0.45208820  0.31964531     0.12400
H712        H  0.28373075  0.01749887  0.33566105     0.12400
H713        H  0.30176818  0.06061729  0.31214536     0.12400
H714        H  0.38326028  0.99392128  0.29635275     0.12400
C715        C  0.35177913  0.27058613  0.31749195    -0.13800
C716        C  0.32613786  0.26445528  0.33052218     0.08400
C717        C  0.31027128  0.23181479  0.33048728    -0.13800
C718        C  0.31916714  0.20612670  0.31731199    -0.13800
C719        C  0.34501244  0.21191418  0.30431076     0.08400
C720        C  0.36155486  0.24430103  0.30473466    -0.13800
H721        H  0.36435451  0.29554780  0.31729189     0.12400
H722        H  0.29018532  0.22647706  0.34027934     0.12400
H723        H  0.30558830  0.18176528  0.31715368     0.12400
H724        H  0.38172636  0.24941381  0.29496753     0.12400
C725        C  0.09419772  0.25006082  0.55696836    -0.13800
C726        C  0.07692056  0.22408876  0.54701147     0.08400
C727        C  0.08668084  0.18912399  0.54855639    -0.13800
C728        C  0.11442330  0.18036575  0.55912525    -0.13800
C729        C  0.13238105  0.20627582  0.56871624     0.08400
C730        C  0.12170694  0.24113226  0.56795536    -0.13800
H731        H  0.08688948  0.27720290  0.55579910     0.12400
H732        H  0.07354909  0.16884933  0.54094446     0.12400
H733        H  0.12223418  0.15332932  0.55952872     0.12400
H734        H  0.13541933  0.26150443  0.57511663     0.12400
C735        C  0.39742034  0.24723865  0.56636852    -0.13800
C736        C  0.40735410  0.22839803  0.55012869     0.08400
C737        C  0.39035155  0.19801279  0.54508598    -0.13800
C738        C  0.36304171  0.18720182  0.55557218    -0.13800
C739        C  0.35190426  0.20661448  0.57135276     0.08400
C740        C  0.36976946  0.23635263  0.57697723    -0.13800
H741        H  0.41034423  0.27084148  0.57040418     0.12400
H742        H  0.39770125  0.18321013  0.53260387     0.12400
H743        H  0.35011848  0.16396008  0.55094903     0.12400
H744        H  0.36188410  0.25163214  0.58915404     0.12400
C745        C  0.08474946  0.24582955  0.43904499    -0.13800
C746        C  0.07012098  0.26902717  0.45211235     0.08400
C747        C  0.08159671  0.30336838  0.45338537    -0.13800
C748        C  0.10829559  0.31414019  0.44239336    -0.13800
C749        C  0.12405638  0.29081810  0.42983744     0.08400
C750        C  0.11161249  0.25676152  0.42784709    -0.13800
H751        H  0.07608240  0.21913700  0.43800840     0.12400
H752        H  0.07049220  0.32152069  0.46338730     0.12400
H753        H  0.11725503  0.34057708  0.44416576     0.12400
H754        H  0.12344210  0.23830711  0.41832274     0.12400
C755        C  0.38552160  0.25052156  0.44508671    -0.13800
C756        C  0.40147303  0.27644403  0.45579450     0.08400
C757        C  0.38997657  0.31093821  0.45516666    -0.13800
C758        C  0.36162011  0.31907380  0.44498256    -0.13800
C759        C  0.34470655  0.29300171  0.43490007     0.08400
C760        C  0.35738066  0.25885071  0.43450344    -0.13800
H761        H  0.39423336  0.22376681  0.44545136     0.12400
H762        H  0.40213145  0.33120355  0.46330826     0.12400
H763        H  0.35252417  0.34570057  0.44531011     0.12400
H764        H  0.34470295  0.23839398  0.42679662     0.12400
C765        C  0.09996665  0.99288103  0.55569562    -0.13800
C766        C  0.07724527  0.01755165  0.54887727     0.08400
C767        C  0.08184903  0.05304067  0.55287800    -0.13800
C768        C  0.10977598  0.06407497  0.56261680    -0.13800
C769        C  0.13334368  0.03978812  0.56878209     0.08400
C770        C  0.12781699  0.00396833  0.56582325    -0.13800
H771        H  0.09678864  0.96539098  0.55252420     0.12400
H772        H  0.06458734  0.07234176  0.54761340     0.12400
H773        H  0.11338957  0.09176325  0.56492145     0.12400
H774        H  0.14586316  0.98488067  0.57037303     0.12400
C775        C  0.38818027  0.00003059  0.55800036    -0.13800
C776        C  0.40817079  0.02536706  0.54921393     0.08400
C777        C  0.40216575  0.06082672  0.55265272    -0.13800
C778        C  0.37519872  0.07098862  0.56368334    -0.13800
C779        C  0.35389442  0.04585562  0.57159883     0.08400
C780        C  0.36126033  0.01025893  0.56933968    -0.13800
H781        H  0.38317293  0.46995350  0.54900507     0.12400
H782        H  0.41727369  0.08063833  0.54588113     0.12400
H783        H  0.37019446  0.09864139  0.56535092     0.12400
H784        H  0.33543238  0.48819496  0.56863054     0.12400
C785        C  0.10096637  0.42898734  0.43720397    -0.13800
C786        C  0.12268693  0.45383982  0.42941860     0.08400
C787        C  0.11546486  0.48952325  0.43150181    -0.13800
C788        C  0.08840246  0.50002869  0.44268568    -0.13800
C789        C  0.06823972  0.47488562  0.45153562     0.08400
C790        C  0.07399603  0.43939207  0.44814249    -0.13800
H791        H  0.10570247  0.40131363  0.43555383     0.12400
H792        H  0.13192055  0.50909600  0.42566348     0.12400
H793        H  0.08415987  0.52758519  0.44523608     0.12400
H794        H  0.05867564  0.41971891  0.45487504     0.12400
C795        C  0.38371727  0.45180959  0.46086978    -0.13800
C796        C  0.39886037  0.48251837  0.45454226     0.08400
C797        C  0.38536519  0.50093553  0.43913773    -0.13800
C798        C  0.35654036  0.48869547  0.43034947    -0.13800
C799        C  0.34107807  0.45805028  0.43696378     0.08400
C800        C  0.35518806  0.43974101  0.45224070    -0.13800
H801        H  0.39373951  0.43750363  0.47284516     0.12400
H802        H  0.39667524  0.52496692  0.43425640     0.12400
H803        H  0.34616696  0.50330787  0.41860564     0.12400
H804        H  0.34425379  0.41605882  0.45776236     0.12400
N805        N  0.43908296  0.00319857  0.50001368    -0.37000
N806        N  0.98523686  0.99890825  0.47327805    -0.57600
N807        N  0.03719622  0.49921560  0.50047919    -0.37000
N808        N  0.98965644  0.50462558  0.53190815    -0.57600
C809        C  0.41896944  0.00468268  0.48473233     0.26500
C810        C  0.42106173  0.51462865  0.51492048     0.26500
C811        C  0.05577313  0.00212929  0.48481639     0.26500
C812        C  0.05735163  0.49878450  0.51576886     0.26500
C813        C  0.45915932  0.98954124  0.45927580     0.35200
C814        C  0.01059273  0.98920696  0.46187329     0.35200
C815        C  0.46439327  0.50829992  0.53959709     0.35200
C816        C  0.01693478  0.51635277  0.54082451     0.35200
C817        C  0.38824966  0.01697898  0.49023789    -0.22300
C818        C  0.39027506  0.52604105  0.50898978    -0.22300
C819        C  0.08791604  0.01171417  0.48902345    -0.22300
C820        C  0.08838969  0.48728958  0.51029364    -0.22300
C821        C  0.46788733  0.97576379  0.44171686    -0.23400
C822        C  0.99867360  0.97567534  0.44491501    -0.23400
C823        C  0.47543620  0.50593559  0.55819115    -0.23400
C824        C  0.00843332  0.53280319  0.55774426    -0.23400
C825        C  0.42662659  0.99218958  0.46631641    -0.18700
C826        C  0.43116361  0.51274261  0.53418110    -0.18700
C827        C  0.04945388  0.51160234  0.53411202    -0.18700
C828        C  0.04435860  0.99292955  0.46641398    -0.18700
H829        H  0.36676838  0.02044994  0.48134291     0.14200
H830        H  0.37022126  0.53565452  0.51776767     0.14200
H831        H  0.10836573  0.01514694  0.47928676     0.14200
H832        H  0.11003699  0.48474150  0.51914263     0.14200
H833        H  0.45171094  0.96505040  0.43098231     0.12500
H834        H  0.01272085  0.96616178  0.43284140     0.12500
H835        H  0.46062464  0.50499588  0.57104697     0.12500
H836        H  0.02482717  0.54459740  0.56802699     0.12500
H837        H  0.46181424  0.99074945  0.50037877     0.25700
H838        H  0.01409736  0.51079982  0.50004035     0.25700
N839        N  0.03571648  0.74581127  0.50165791    -0.37000
N840        N  0.49020045  0.74966424  0.53199606    -0.57600
N841        N  0.43830421  0.75926495  0.50365648    -0.37000
N842        N  0.48671305  0.76821747  0.47366129    -0.57600
C843        C  0.05562317  0.73348806  0.51555196     0.26500
C844        C  0.05311121  0.74519909  0.48514874     0.26500
C845        C  0.42020518  0.75850479  0.51986607     0.26500
C846        C  0.41834010  0.77045307  0.48949708     0.26500
C847        C  0.01576502  0.73602121  0.54276948     0.35200
C848        C  0.46400618  0.73992327  0.54264153     0.35200
C849        C  0.00933245  0.76670336  0.46326820     0.35200
C850        C  0.45935251  0.76988235  0.46279737     0.35200
C851        C  0.08614489  0.72517302  0.50772817    -0.22300
C852        C  0.08456632  0.73261549  0.48861701    -0.22300
C853        C  0.38821115  0.76897854  0.51597700    -0.22300
C854        C  0.38705929  0.77667071  0.49687305    -0.22300
C855        C  0.00774660  0.73649324  0.56200028    -0.23400
C856        C  0.47436293  0.72397224  0.55931769    -0.23400
C857        C  0.99859656  0.78332587  0.44687597    -0.23400
C858        C  0.46801574  0.77045851  0.44367746    -0.23400
C859        C  0.04789955  0.73190461  0.53528547    -0.18700
C860        C  0.04255588  0.75907389  0.46750079    -0.18700
C861        C  0.42683554  0.77314227  0.46991217    -0.18700
C862        C  0.43081762  0.74544434  0.53765900    -0.18700
H863        H  0.10777853  0.71566427  0.51504180     0.14200
H864        H  0.10466894  0.72983571  0.47854860     0.14200
H865        H  0.36762146  0.77031537  0.52581473     0.14200
H866        H  0.36533005  0.78502829  0.48923436     0.14200
H867        H  0.02443607  0.73549321  0.57396734     0.12500
H868        H  0.45919430  0.71359579  0.57071206     0.12500
H869        H  0.01347019  0.79296322  0.43516628     0.12500
H870        H  0.45172743  0.77237265  0.43155647     0.12500
H871        H  0.01326826  0.75819701  0.50373629     0.25700
H872        H  0.46158913  0.74861807  0.50204077     0.25700
C873        C  0.31088210  0.94221474  0.42740161     0.42000
N874        N  0.27065310  0.93481871  0.40801624     0.00900
C875        C  0.17062805  0.78812784  0.40528439    -0.07000
H876        H  0.30579410  0.76873214  0.39901811     0.06400
C877        C  0.29809706  0.82772672  0.33712005    -0.07300
Co878      Co  0.23198731  0.87134362  0.41865635     0.74200
N879        N  0.26969792  0.80898761  0.40518411    -0.26500
Co880      Co  0.23532755  0.80948895  0.38291325     0.74100
C881        C  0.30987941  0.79310453  0.34281670     0.42100
N882        N  0.27600653  0.91515104  0.35163244     0.00500
N883        N  0.27302494  0.81089424  0.36273674     0.00600
N884        N  0.17040132  0.83030637  0.42782463    -0.47300
H885        H  0.29461160  0.89516813  0.44560124     0.06400
N886        N  0.26802963  0.83299764  0.41863782     0.00900
N887        N  0.20186887  0.81203888  0.36047097     0.00700
C888        C  0.16950814  0.79553747  0.33795440     0.42300
N889        N  0.27461768  0.93838766  0.36552697    -0.25900
C890        C  0.16964874  0.91317220  0.42864169    -0.06900
N891        N  0.29644845  0.95521907  0.41151327    -0.47100
N892        N  0.18187318  0.78654917  0.35510829    -0.47300
C893        C  0.15363314  0.94461100  0.42182572     0.42000
N894        N  0.19612520  0.83329324  0.41638886     0.00900
N895        N  0.20336413  0.93952467  0.36317365    -0.26000
N896        N  0.26771431  0.90943862  0.42057614    -0.26500
N897        N  0.20483099  0.91643330  0.34920019     0.00500
H898        H  0.18076041  0.99019012  0.36549450     0.06400
H899        H  0.18304175  0.84368990  0.31985031     0.06500
N900        N  0.19698344  0.80920247  0.40298516    -0.26500
N901        N  0.27518119  0.83643965  0.35015677    -0.26100
N902        N  0.19780001  0.93613249  0.40559541     0.00900
C903        C  0.31221522  0.80479397  0.42510446     0.42300
C904        C  0.29618330  0.96393274  0.36171482    -0.07400
N905        N  0.20368272  0.83751064  0.34780099    -0.26100
H906        H  0.30214532  0.84124903  0.32378325     0.06500
N907        N  0.29285473  0.83143992  0.43070369    -0.47300
H908        H  0.29741454  0.98858341  0.36922876     0.06400
C909        C  0.17255095  0.95673634  0.33875570     0.42100
C910        C  0.29148659  0.91228742  0.43351164    -0.06900
Co911      Co  0.23663154  0.93807141  0.38567233     0.73800
N912        N  0.29735189  0.92403173  0.33811977    -0.47100
C913        C  0.15291926  0.80267040  0.42175058     0.42400
N914        N  0.17246508  0.95798235  0.40759288    -0.47100
Co915      Co  0.23995474  0.87635163  0.34939829     0.73900
C916        C  0.18389631  0.82958292  0.33318767    -0.07400
C917        C  0.29684857  0.78942054  0.40818505    -0.06900
N918        N  0.19650209  0.90994817  0.41779369    -0.26500
N919        N  0.29294189  0.78451267  0.35872895    -0.47200
H920        H  0.16440649  0.76604223  0.39638312     0.06400
C921        C  0.18317984  0.96557496  0.35803099    -0.07400
Cl922      Cl  0.23591617  0.87385570  0.38403901    -0.50400
C923        C  0.31131353  0.95457199  0.34345424     0.42200
H924        H  0.16262664  0.89602179  0.44020404     0.06400
N925        N  0.18714080  0.92600728  0.33428036    -0.47100
C926        C  0.32009408  0.55552445  0.57887632     0.42000
N927        N  0.27701981  0.56434203  0.59606629     0.00900
C928        C  0.17842470  0.71206076  0.59586616    -0.07000
H929        H  0.31052116  0.73324177  0.60824772     0.06400
C930        C  0.29018895  0.66878482  0.67037760    -0.07300
Co931      Co  0.24254195  0.62986229  0.58414485     0.74200
N932        N  0.27744573  0.69114301  0.60070030    -0.26500
Co933      Co  0.23949068  0.69035283  0.62077514     0.74100
C934        C  0.30309062  0.70383401  0.66658188     0.42100
N935        N  0.27070744  0.58216418  0.65279330     0.00500
N936        N  0.27309832  0.68713452  0.64305469     0.00600
N937        N  0.18206898  0.67115705  0.57269809    -0.47300
H938        H  0.31131615  0.60527993  0.56141341     0.06400
N939        N  0.27819667  0.66766103  0.58697768     0.00900
N940        N  0.20223497  0.68831866  0.64114226     0.00700
C941        C  0.17048435  0.70653867  0.66374555     0.42300
N942        N  0.27204911  0.55933781  0.63868770    -0.25900
C943        C  0.18346756  0.58915170  0.56877132    -0.06900
N944        N  0.30181881  0.54206435  0.59332710    -0.47100
N945        N  0.18465144  0.71546791  0.64698386    -0.47300
C946        C  0.16481152  0.55830044  0.57419232     0.42000
N947        N  0.20660668  0.66839624  0.58487710     0.00900
N948        N  0.20083729  0.56067976  0.63657426    -0.26000
N949        N  0.27814736  0.59105148  0.58418874    -0.26500
N950        N  0.19987876  0.58397371  0.65043607     0.00500
H951        H  0.18019880  0.50921532  0.63410830     0.06400
H952        H  0.17803546  0.65569160  0.68053345     0.06500
N953        N  0.20511890  0.69177712  0.59866776    -0.26500
N954        N  0.27172542  0.66085341  0.65521370    -0.26100
N955        N  0.20437035  0.56565971  0.59399436     0.00900
C956        C  0.32182542  0.69767755  0.58242107     0.42300
C957        C  0.29135327  0.53258760  0.64396126    -0.07400
N958        N  0.20059723  0.66180073  0.65310004    -0.26100
H959        H  0.29023586  0.65426977  0.68359481     0.06500
N960        N  0.30412324  0.67071540  0.57576696    -0.47300
H961        H  0.29314148  0.50792383  0.63649114     0.06400
C962        C  0.16726159  0.54321898  0.66000147     0.42100
C963        C  0.30443735  0.58773138  0.57282888    -0.06900
Co964      Co  0.23855067  0.56164623  0.61623513     0.73800
N965        N  0.28752106  0.57176679  0.66788169    -0.47100
C966        C  0.16316135  0.69795181  0.57863348     0.42400
N967        N  0.17921111  0.54472011  0.58994686    -0.47100
Co968      Co  0.23575192  0.62218560  0.65299165     0.73900
C969        C  0.18034909  0.67038506  0.66743630    -0.07400
C970        C  0.30410386  0.71181048  0.59892975    -0.06900
N971        N  0.20692612  0.59182040  0.58187992    -0.26500
N972        N  0.29149602  0.71324310  0.64931691    -0.47200
H973        H  0.16981321  0.73253682  0.60528101     0.06400
C974        C  0.18041486  0.53438405  0.64113107    -0.13400
Cl975      Cl  0.23912926  0.62595816  0.61858138    -0.50400
C976        C  0.30142900  0.54069907  0.66345710     0.42200
H977        H  0.18035344  0.60666540  0.55684184     0.06400
N978        N  0.18018732  0.57456881  0.66454112    -0.47100
N979        N  0.19504510  0.99367620  0.00230121    -0.37000
N980        N  0.24804125  0.51217671  0.97572273    -0.57600
N981        N  0.29555870  0.99673305  0.00454003    -0.37000
N982        N  0.24375833  0.98772438  0.03273600    -0.57600
C983        C  0.17903849  0.51760634  0.98828895     0.26500
C984        C  0.17574774  0.99488089  0.01805669     0.26500
C985        C  0.31558066  0.51662681  0.99185685     0.26500
C986        C  0.31287601  0.99943862  0.02092940     0.26500
C987        C  0.22220102  0.50754420  0.96379363     0.35200
C988        C  0.27594156  0.50846837  0.96522396     0.35200
C989        C  0.21676697  0.97705635  0.04239863     0.35200
C990        C  0.26985529  0.97897910  0.04359494     0.35200
C991        C  0.14945852  0.53235901  0.99432058    -0.22300
C992        C  0.14496034  0.00792576  0.01340671    -0.22300
C993        C  0.34524848  0.52836343  0.99927248    -0.22300
C994        C  0.34358510  0.01371149  0.01710616    -0.22300
C995        C  0.23384381  0.50058704  0.94557509    -0.23400
C996        C  0.26780343  0.50148237  0.94645211    -0.23400
C997        C  0.22561369  0.96236872  0.05968134    -0.23400
C998        C  0.25935687  0.96364290  0.06046075    -0.23400
C999        C  0.18853067  0.51263904  0.96901606    -0.18700
C1000       C  0.18417825  0.98194022  0.03621192    -0.18700
C1001       C  0.30293857  0.98613248  0.03883543    -0.18700
C1002       C  0.30847679  0.51382559  0.97215039    -0.18700
H1003       H  0.13035599  0.54386577  0.98563582     0.14200
H1004       H  0.12403719  0.01160719  0.02282300     0.14200
H1005       H  0.36635734  0.53828284  0.99150605     0.14200
H1006       H  0.36334909  0.01862047  0.02703470     0.14200
H1007       H  0.21944499  0.49593462  0.93289168     0.12500
H1008       H  0.28458588  0.49765509  0.93460120     0.12500
H1009       H  0.20944766  0.95213950  0.07064979     0.12500
H1010       H  0.27437371  0.95462540  0.07217855     0.12500
H1011       H  0.21774272  0.98122073  0.00126333     0.25700
H1012       H  0.27371846  0.98298087  0.00277296     0.25700
N1013       N  0.19365104  0.75023756  0.00334966    -0.37000
N1014       N  0.24248091  0.75568305  0.03345609    -0.57600
N1015       N  0.29387802  0.74943351  0.00443318    -0.37000
N1016       N  0.24474572  0.74025018  0.97492518    -0.57600
C1017       C  0.17478444  0.74729283  0.01919967     0.26500
C1018       C  0.17547756  0.73833550  0.98861661     0.26500
C1019       C  0.31137208  0.74632856  0.02071744     0.26500
C1020       C  0.31306685  0.73713105  0.99008725     0.26500
C1021       C  0.21554849  0.76688214  0.04303399     0.35200
C1022       C  0.26870541  0.76627076  0.04369324     0.35200
C1023       C  0.21836827  0.74195564  0.96318757     0.35200
C1024       C  0.27209583  0.74110974  0.96378770     0.35200
C1025       C  0.14438888  0.73329470  0.01456894    -0.22300
C1026       C  0.14490642  0.72730190  0.99530104    -0.22300
C1027       C  0.34203000  0.73207660  0.01671739    -0.22300
C1028       C  0.34304207  0.72602754  0.99741955    -0.22300
C1029       C  0.22459441  0.78401514  0.05958708    -0.23400
C1030       C  0.25843209  0.78363945  0.06000834    -0.23400
C1031       C  0.22904586  0.74386441  0.94442768    -0.23400
C1032       C  0.26304213  0.74322779  0.94480608    -0.23400
C1033       C  0.18294477  0.76051090  0.03730351    -0.18700
C1034       C  0.18493458  0.73906616  0.96918480    -0.18700
C1035       C  0.30490491  0.73705614  0.97047230    -0.18700
C1036       C  0.30171478  0.75937344  0.03872637    -0.18700
H1037       H  0.12378984  0.72843624  0.02406167     0.14200
H1038       H  0.12475144  0.71653327  0.98714368     0.14200
H1039       H  0.36175901  0.72697250  0.02666864     0.14200
H1040       H  0.36374389  0.71510526  0.98966385     0.14200
H1041       H  0.20851185  0.79556537  0.07020886     0.12500
H1042       H  0.27370110  0.79488863  0.07102368     0.12500
H1043       H  0.21393042  0.74498472  0.93178006     0.12500
H1044       H  0.27924248  0.74376145  0.93251335     0.12500
H1045       H  0.21571563  0.76391771  0.00232665     0.25700
H1046       H  0.27191370  0.76313020  0.00294059     0.25700
C1047       C  0.41543699  0.55046577  0.92010278     0.42000
N1048       N  0.43616392  0.58149003  0.89748807     0.00900
C1049       C  0.07297301  0.57960181  0.84378009    -0.07000
H1050       H  0.10541644  0.60565070  0.90980263     0.06400
C1051       C  0.04176614  0.71060600  0.91704276    -0.07300
Co1052     Co  0.50077573  0.55923181  0.88179183     0.74200
N1053       N  0.05802325  0.59106054  0.89973558    -0.26500
Co1054     Co  0.05339737  0.62839296  0.87889274     0.74100
C1055       C  0.07540818  0.69766514  0.92158660     0.42100
N1056       N  0.45263634  0.68199511  0.90179259     0.00500
N1057       N  0.05371024  0.66542857  0.90004039     0.00600
N1058       N  0.03734496  0.53544287  0.84933964    -0.47300
H1059       H  0.46190658  0.51492730  0.92063369     0.06400
N1060       N  0.03793127  0.56450670  0.90276568     0.00900
N1061       N  0.04824567  0.66911932  0.85914190     0.00700
C1062       C  0.05682566  0.71028096  0.83887815     0.42300
N1063       N  0.43205355  0.65629114  0.89787918    -0.25900
C1064       C  0.46369071  0.52992961  0.84702540    -0.06900
N1065       N  0.40996355  0.57727137  0.90831704    -0.47100
N1066       N  0.06871227  0.67925288  0.84532420    -0.47300
C1067       C  0.43499732  0.53870226  0.83560094     0.42000
N1068       N  0.03296884  0.56121472  0.86155644     0.00900
N1069       N  0.43941002  0.66110033  0.85688693    -0.26000
N1070       N  0.46017003  0.55915186  0.90117875    -0.26500
N1071       N  0.45942114  0.68752409  0.86045129     0.00500
H1072       H  0.39927431  0.65560750  0.83686476     0.06400
H1073       H  0.01358448  0.74260084  0.85069415     0.06500
N1074       N  0.05295498  0.58790881  0.85857325    -0.26500
N1075       N  0.03000567  0.68824130  0.90360682    -0.26100
N1076       N  0.44335542  0.57935190  0.85642387     0.00900
C1077       C  0.08119308  0.55497431  0.92011954     0.42300
C1078       C  0.40561349  0.65840720  0.90896114    -0.07400
N1079       N  0.02506421  0.69255234  0.86250343    -0.26100
H1080       H  0.02986540  0.73448391  0.92163573     0.06500
N1081       N  0.05147535  0.54129687  0.91469170    -0.47300
H1082       H  0.38406330  0.64208230  0.90746010     0.06400
C1083       C  0.43126875  0.70572209  0.83659606     0.42100
C1084       C  0.44911312  0.53768953  0.91529944    -0.06900
Co1085     Co  0.43752810  0.61959173  0.87665107     0.73800
N1086       N  0.44017589  0.70321520  0.91519261    -0.47100
C1087       C  0.06201885  0.54466339  0.83757122     0.42400
N1088       N  0.42309467  0.56951417  0.84249071    -0.47100
Co1089     Co  0.49313379  0.68798571  0.88258902     0.73900
C1090       C  0.02821233  0.71897509  0.85036141    -0.07400
C1091       C  0.08469355  0.58798128  0.91039373    -0.06900
N1092       N  0.46661657  0.55592362  0.85960713    -0.26500
N1093       N  0.08018768  0.66995756  0.91038540    -0.47200
H1094       H  0.09356489  0.59504277  0.83874883     0.06400
C1095       C  0.42001366  0.67043349  0.84212172    -0.07400
Cl1096     Cl  0.49709623  0.62367798  0.88026073    -0.50400
C1097       C  0.41063080  0.68899350  0.92063200     0.42200
H1098       H  0.47846894  0.50639996  0.84694319     0.06400
N1099       N  0.45561851  0.71405027  0.84865540    -0.47100
N1100       N  0.11682158  0.87498143  0.78230103    -0.37000
N1101       N  0.13205816  0.92865522  0.75446481    -0.57600
N1102       N  0.14795550  0.87405961  0.72723195    -0.37000
N1103       N  0.13703415  0.82016706  0.75573353    -0.57600
C1104       C  0.11540464  0.90384501  0.79345861     0.26500
C1105       C  0.11743587  0.84679060  0.79393225     0.26500
C1106       C  0.16008571  0.90269178  0.71838470     0.26500
C1107       C  0.16248447  0.84592459  0.71910843     0.26500
C1108       C  0.11664909  0.94852361  0.76770459     0.35200
C1109       C  0.13273934  0.94771191  0.73825574     0.35200
C1110       C  0.12140879  0.80070959  0.76904406     0.35200
C1111       C  0.13794180  0.80052438  0.73972984     0.35200
C1112       C  0.11524999  0.89383727  0.81245095    -0.22300
C1113       C  0.11647715  0.85782017  0.81274666    -0.22300
C1114       C  0.18306588  0.89270366  0.70473569    -0.22300
C1115       C  0.18461952  0.85678028  0.70521442    -0.22300
C1116       C  0.10779099  0.98046403  0.75992592    -0.23400
C1117       C  0.11783885  0.97987946  0.74123934    -0.23400
C1118       C  0.11279162  0.76846115  0.76157426    -0.23400
C1119       C  0.12305874  0.76843579  0.74294983    -0.23400
C1120       C  0.11141809  0.93864788  0.78687810    -0.18700
C1121       C  0.11514420  0.81152072  0.78792720    -0.18700
C1122       C  0.15329729  0.81090165  0.72253968    -0.18700
C1123       C  0.14867135  0.93718374  0.72124055    -0.18700
H1124       H  0.11364720  0.91070261  0.82480328     0.14200
H1125       H  0.11590689  0.84154928  0.82535677     0.14200
H1126       H  0.19679172  0.90951617  0.69517220     0.14200
H1127       H  0.19968671  0.84046196  0.69606057     0.14200
H1128       H  0.09873954  0.50621174  0.76448798     0.12500
H1129       H  0.11681835  0.50432711  0.72844840     0.12500
H1130       H  0.09989401  0.74737368  0.76867426     0.12500
H1131       H  0.11953919  0.74730386  0.73292356     0.12500
H1132       H  0.11299705  0.87427996  0.76769520     0.25700
H1133       H  0.12753378  0.87348545  0.73625610     0.25700
N1134       N  0.34913829  0.92829956  0.75504024    -0.37000
N1135       N  0.36989028  0.87455122  0.78168215    -0.57600
N1136       N  0.35082435  0.82038177  0.75510265    -0.37000
N1137       N  0.33296590  0.87377132  0.72770589    -0.57600
C1138       C  0.36693183  0.94735337  0.76757357     0.26500
C1139       C  0.34787889  0.94668908  0.73859022     0.26500
C1140       C  0.36988959  0.80210914  0.76735446     0.26500
C1141       C  0.34932008  0.80170483  0.73875908     0.26500
C1142       C  0.37072543  0.90291353  0.79317284     0.35200
C1143       C  0.37234543  0.84621656  0.79312690     0.35200
C1144       C  0.32017011  0.90191126  0.71877839     0.35200
C1145       C  0.32020550  0.84534614  0.71901602     0.35200
C1146       C  0.37685961  0.97833288  0.75906000    -0.22300
C1147       C  0.36490894  0.97787431  0.74074541    -0.22300
C1148       C  0.38067141  0.77158415  0.75866091    -0.22300
C1149       C  0.36759382  0.77127903  0.74062960    -0.22300
C1150       C  0.37323234  0.89255561  0.81202911    -0.23400
C1151       C  0.37419671  0.85661713  0.81200376    -0.23400
C1152       C  0.29876553  0.89133515  0.70455046    -0.23400
C1153       C  0.29878474  0.85543508  0.70470549    -0.23400
C1154       C  0.37363484  0.93776270  0.78662469    -0.18700
C1155       C  0.33038440  0.93668545  0.72205062    -0.18700
C1156       C  0.33058659  0.81073325  0.72256256    -0.18700
C1157       C  0.37633554  0.81150701  0.78647201    -0.18700
H1158       H  0.39151023  0.49895588  0.76346162     0.14200
H1159       H  0.36888769  0.49789343  0.72830381     0.14200
H1160       H  0.39632786  0.75154595  0.76466903     0.14200
H1161       H  0.37122027  0.75098224  0.73008163     0.14200
H1162       H  0.37512512  0.90920766  0.82444412     0.12500
H1163       H  0.37682032  0.84008873  0.82441241     0.12500
H1164       H  0.28511096  0.90773761  0.69481100     0.12500
H1165       H  0.28521613  0.83871249  0.69509194     0.12500
H1166       H  0.33600482  0.90560453  0.75811499     0.25700
H1167       H  0.33677864  0.84239275  0.75837313     0.25700
N1168       N  0.13543065  0.62299048  0.27901496    -0.37000
N1169       N  0.13186075  0.56959788  0.24906520    -0.57600
N1170       N  0.11375664  0.62345398  0.22218563    -0.37000
N1171       N  0.12129620  0.67671757  0.25114727    -0.57600
C1172       C  0.14989221  0.59526413  0.28753474     0.26500
C1173       C  0.14491505  0.65206940  0.28854550     0.26500
C1174       C  0.11891898  0.59595947  0.21044772     0.26500
C1175       C  0.11479638  0.65268450  0.21139934     0.26500
C1176       C  0.13130418  0.54959842  0.26492821     0.35200
C1177       C  0.11901219  0.54974184  0.23497550     0.35200
C1178       C  0.11830071  0.69533214  0.26740605     0.35200
C1179       C  0.10635105  0.69558462  0.23741653     0.35200
C1180       C  0.16880190  0.60682139  0.30269964    -0.22300
C1181       C  0.16568885  0.64267240  0.30332588    -0.22300
C1182       C  0.12364850  0.60776436  0.19197716    -0.22300
C1183       C  0.12128828  0.64366204  0.19259022    -0.22300
C1184       C  0.11818441  0.51699601  0.26086789    -0.23400
C1185       C  0.11040677  0.51708787  0.24188873    -0.23400
C1186       C  0.10117503  0.72605080  0.26405499    -0.23400
C1187       C  0.09342339  0.72613380  0.24503697    -0.23400
C1188       C  0.14423326  0.55978171  0.28275169    -0.18700
C1189       C  0.13391149  0.68651000  0.28466942    -0.18700
C1190       C  0.10664855  0.68665509  0.21789347    -0.18700
C1191       C  0.11587576  0.56055768  0.21584142    -0.18700
H1192       H  0.18319039  0.59107050  0.31240123     0.14200
H1193       H  0.17729659  0.65975967  0.31358156     0.14200
H1194       H  0.12764384  0.59208163  0.17933780     0.14200
H1195       H  0.12317048  0.66102513  0.18046627     0.14200
H1196       H  0.10220400  0.00008560  0.27269320     0.12500
H1197       H  0.08520843  0.00033537  0.23644262     0.12500
H1198       H  0.09527390  0.74643349  0.27421221     0.12500
H1199       H  0.08019008  0.74657304  0.23764971     0.12500
H1200       H  0.11729255  0.62166512  0.26861022     0.25700
H1201       H  0.10526100  0.62193128  0.23616450     0.25700
N1202       N  0.37642867  0.57114364  0.25750043    -0.37000
N1203       N  0.36048203  0.62501012  0.28492591    -0.57600
N1204       N  0.37528097  0.67839333  0.25679392    -0.37000
N1205       N  0.38783077  0.62473828  0.22851098    -0.57600
C1206       C  0.36055298  0.55246053  0.27113320     0.26500
C1207       C  0.37509734  0.55236457  0.24117810     0.26500
C1208       C  0.35895737  0.69728768  0.27014169     0.26500
C1209       C  0.37485112  0.69710083  0.24044744     0.26500
C1210       C  0.36218464  0.59702030  0.29663589     0.35200
C1211       C  0.36110280  0.65366620  0.29618017     0.35200
C1212       C  0.39989333  0.59622121  0.21947823     0.35200
C1213       C  0.40023543  0.65287998  0.21927153     0.35200
C1214       C  0.34883244  0.52160034  0.26331007    -0.22300
C1215       C  0.35815821  0.52147152  0.24443486    -0.22300
C1216       C  0.34775030  0.72820102  0.26210901    -0.22300
C1217       C  0.35790835  0.72813375  0.24337877    -0.22300
C1218       C  0.36453450  0.60798223  0.31541026    -0.23400
C1219       C  0.36372084  0.64388842  0.31512367    -0.23400
C1220       C  0.42018230  0.60625902  0.20450572    -0.23400
C1221       C  0.42046429  0.64217321  0.20440249    -0.23400
C1222       C  0.35779986  0.56202646  0.29059127    -0.18700
C1223       C  0.39076492  0.56144153  0.22381628    -0.18700
C1224       C  0.39159166  0.68790989  0.22344971    -0.18700
C1225       C  0.35586214  0.68816244  0.28961229    -0.18700
H1226       H  0.33922466  0.99551603  0.26777292     0.14200
H1227       H  0.36123939  0.99678861  0.23241009     0.14200
H1228       H  0.33398114  0.74887735  0.26903753     0.14200
H1229       H  0.35353161  0.74871369  0.23311969     0.14200
H1230       H  0.36588522  0.59182282  0.32803213     0.12500
H1231       H  0.36432721  0.66082588  0.32746851     0.12500
H1232       H  0.43332400  0.58950291  0.19463430     0.12500
H1233       H  0.43389574  0.65844617  0.19444059     0.12500
H1234       H  0.39048227  0.59355790  0.25966185     0.25700
H1235       H  0.38928856  0.65604732  0.25925140     0.25700
C1236       C  0.41388893  0.94009548  0.08240697     0.42000
N1237       N  0.45662718  0.93258564  0.09979868     0.00900
C1238       C  0.05335347  0.78558505  0.09828521    -0.07000
H1239       H  0.42059116  0.76634813  0.11105208     0.06400
C1240       C  0.44659037  0.82940200  0.17448504    -0.07300
Co1241     Co  0.49186570  0.86796319  0.08716540     0.74200
N1242       N  0.45502436  0.80778019  0.10401491    -0.26500
Co1243     Co  0.49404139  0.80767176  0.12355045     0.74100
C1244       C  0.43102648  0.79579259  0.17007798     0.42100
N1245       N  0.46637149  0.91547541  0.15688586     0.00500
N1246       N  0.46195283  0.81162272  0.14662756     0.00600
N1247       N  0.04949354  0.82659790  0.07524944    -0.47300
H1248       H  0.42622247  0.89231202  0.06397846     0.06400
N1249       N  0.45554255  0.83088558  0.09010889     0.00900
N1250       N  0.03204690  0.81023329  0.14360799     0.00700
C1251       C  0.06856127  0.79164863  0.16324301     0.42300
N1252       N  0.46342248  0.93769452  0.14258152    -0.25900
C1253       C  0.05015513  0.90824676  0.07257692    -0.06900
N1254       N  0.43107662  0.95390753  0.09716949    -0.47100
N1255       N  0.05120787  0.78332447  0.14756500    -0.47300
C1256       C  0.06961591  0.93831843  0.07807936     0.42000
N1257       N  0.52671276  0.82875436  0.08730983     0.00900
N1258       N  0.03434024  0.93826484  0.13989459    -0.26000
N1259       N  0.45685083  0.90653928  0.08751774    -0.26500
N1260       N  0.03655867  0.91558881  0.15400754     0.00500
H1261       H  0.05534139  0.98907284  0.13534962     0.06400
H1262       H  0.06274559  0.84056234  0.18194438     0.06500
N1263       N  0.52720313  0.80494336  0.10085110    -0.26500
N1264       N  0.46533267  0.83697791  0.15924278    -0.26100
N1265       N  0.52904735  0.93254291  0.09666138     0.00900
C1266       C  0.41128080  0.80207158  0.08498738     0.42300
C1267       C  0.44322306  0.96366960  0.14796743    -0.07400
N1268       N  0.03543083  0.83618898  0.15585369    -0.26100
H1269       H  0.44689456  0.84359364  0.18780810     0.06500
N1270       N  0.43021606  0.82829425  0.07858323    -0.47300
H1271       H  0.43981450  0.98781752  0.14021424     0.06400
C1272       C  0.07028018  0.95699659  0.16154898     0.42100
C1273       C  0.43129831  0.90934418  0.07589763    -0.06900
Co1274     Co  0.49567494  0.93588940  0.11935016     0.73800
N1275       N  0.44962260  0.92547431  0.17218094    -0.47100
C1276       C  0.06815555  0.79939766  0.08073928     0.42400
N1277       N  0.05526867  0.95256168  0.09375508    -0.47100
Co1278     Co  0.50161472  0.87563066  0.15622251     0.73900
C1279       C  0.05831410  0.82701400  0.16867520    -0.07400
C1280       C  0.42777392  0.78786180  0.10195115    -0.06900
N1281       N  0.52755364  0.90593509  0.08477371    -0.26500
N1282       N  0.44187402  0.78659695  0.15256737    -0.47200
H1283       H  0.06177999  0.76472176  0.10744156     0.06400
C1284       C  0.05504626  0.96475718  0.14320722    -0.07400
Cl1285     Cl  0.49576125  0.87183357  0.12163688    -0.50400
C1286       C  0.43417865  0.95565196  0.16769089     0.42200
H1287       H  0.05305623  0.89058399  0.06067576     0.06400
N1288       N  0.05750153  0.92602582  0.16731919    -0.47100
C1289       C  0.38676951  0.53570454  0.19082274    -0.13800
C1290       C  0.39798223  0.53326331  0.20969911     0.08400
C1291       C  0.41685381  0.50414806  0.21506344    -0.13800
C1292       C  0.43215249  0.97823450  0.20119312    -0.13800
C1293       C  0.42298545  0.98154547  0.18199502     0.08400
C1294       C  0.40416225  0.01058288  0.17643592    -0.13800
H1295       H  0.37180479  0.55770609  0.18643796     0.12400
H1296       H  0.42578720  0.50172006  0.22952056     0.12400
H1297       H  0.44678465  0.95619980  0.20588181     0.12400
H1298       H  0.39658424  0.01365459  0.16176261     0.12400
C1299       C  0.39117750  0.71445936  0.19051150    -0.13800
C1300       C  0.40047649  0.71629034  0.20974616     0.08400
C1301       C  0.41845560  0.74545779  0.21602508    -0.13800
C1302       C  0.42732574  0.77202553  0.20333044    -0.13800
C1303       C  0.41889265  0.76968449  0.18398880     0.08400
C1304       C  0.40063106  0.74071986  0.17771586    -0.13800
H1305       H  0.37695074  0.69247837  0.18537056     0.12400
H1306       H  0.42598777  0.74742507  0.23077022     0.12400
H1307       H  0.44172903  0.79375017  0.20858284     0.12400
H1308       H  0.39383863  0.73832157  0.16286828     0.12400
C1309       C  0.12574629  0.50440015  0.19777910    -0.13800
C1310       C  0.10646738  0.53437967  0.20112735     0.08400
C1311       C  0.07688000  0.53864408  0.19111637    -0.13800
C1312       C  0.06652185  0.01741949  0.17508082    -0.13800
C1313       C  0.08123541  0.98413446  0.17515588     0.08400
C1314       C  0.10564583  0.97680142  0.18866375    -0.13800
H1315       H  0.14867621  0.50066512  0.20535378     0.12400
H1316       H  0.06146281  0.56132682  0.19364035     0.12400
H1317       H  0.04728689  0.02370304  0.16500520     0.12400
H1318       H  0.11733546  0.95134899  0.18897127     0.12400
C1319       C  0.11403571  0.74593784  0.20294213    -0.13800
C1320       C  0.09746570  0.71368301  0.20365914     0.08400
C1321       C  0.07169723  0.70724778  0.19088321    -0.13800
C1322       C  0.06288147  0.73238602  0.17747859    -0.13800
C1323       C  0.07913030  0.76479467  0.17691502     0.08400
C1324       C  0.10460923  0.77152420  0.18981350    -0.13800
H1325       H  0.13407031  0.75133876  0.21265033     0.12400
H1326       H  0.05835853  0.68273609  0.19134084     0.12400
H1327       H  0.04280752  0.72675153  0.16783606     0.12400
H1328       H  0.11734343  0.79639541  0.18960094     0.12400
C1329       C  0.10712897  0.52342802  0.81529226    -0.13800
C1330       C  0.07533891  0.52009945  0.82310697     0.08400
C1331       C  0.05595240  0.49119202  0.81784301    -0.13800
C1332       C  0.06663650  0.96379392  0.80711869    -0.13800
C1333       C  0.09909461  0.96576331  0.80036527     0.08400
C1334       C  0.11937815  0.49782808  0.80270957    -0.13800
H1335       H  0.12263768  0.54529134  0.81917256     0.12400
H1336       H  0.03123871  0.48796741  0.82348644     0.12400
H1337       H  0.05112248  0.94187177  0.80328993     0.12400
H1338       H  0.14399492  0.50058558  0.79686933     0.12400
C1339       C  0.05389737  0.76280092  0.81822055    -0.13800
C1340       C  0.07256550  0.73465537  0.82527048     0.08400
C1341       C  0.10585627  0.73169640  0.81992003    -0.13800
C1342       C  0.12023245  0.75697759  0.80798632    -0.13800
C1343       C  0.10144313  0.78542919  0.80142615     0.08400
C1344       C  0.06821160  0.78794453  0.80654660    -0.13800
H1345       H  0.54043751  0.77243740  0.82677344     0.12400
H1346       H  0.12074473  0.71027805  0.82514493     0.12400
H1347       H  0.14587664  0.75443127  0.80385684     0.12400
H1348       H  0.56672510  0.81541766  0.80672764     0.12400
C1349       C  0.43809152  0.48726523  0.81370253    -0.13800
C1350       C  0.41920228  0.51462543  0.82159313     0.08400
C1351       C  0.38603212  0.01818458  0.81801754    -0.13800
C1352       C  0.37115755  0.99384682  0.80574444    -0.13800
C1353       C  0.38866630  0.96414789  0.79956099     0.08400
C1354       C  0.42384191  0.46221332  0.80183714    -0.13800
H1355       H  0.46412609  0.48498410  0.81675143     0.12400
H1356       H  0.37198553  0.04058289  0.82286901     0.12400
H1357       H  0.34597035  0.99794443  0.80121290     0.12400
H1358       H  0.43909273  0.44144878  0.79608379     0.12400
C1359       C  0.38624357  0.72674826  0.81460056    -0.13800
C1360       C  0.41696129  0.73178586  0.82329302     0.08400
C1361       C  0.43407141  0.76322363  0.81982961    -0.13800
C1362       C  0.42076761  0.78906328  0.80807378    -0.13800
C1363       C  0.38989354  0.78427825  0.79956574     0.08400
C1364       C  0.37278626  0.75282816  0.80288955    -0.13800
H1365       H  0.37245677  0.70294317  0.81703229     0.12400
H1366       H  0.45791358  0.76790757  0.82622614     0.12400
H1367       H  0.43467794  0.81277699  0.80551020     0.12400
H1368       H  0.34899779  0.74849515  0.79636558     0.12400
C1369       C  0.13897709  0.80234772  0.04598642    -0.13800
C1370       C  0.15548774  0.77112241  0.04992079     0.08400
C1371       C  0.14430652  0.74948061  0.06473905    -0.13800
C1372       C  0.11616605  0.75878258  0.07526390    -0.13800
C1373       C  0.09904687  0.78968605  0.07092627     0.08400
C1374       C  0.11103918  0.81155022  0.05637482    -0.13800
H1375       H  0.14735982  0.81920529  0.03454731     0.12400
H1376       H  0.15682607  0.72511762  0.06777513     0.12400
H1377       H  0.10737865  0.74148748  0.08637783     0.12400
H1378       H  0.09848293  0.83560357  0.05275283     0.12400
C1379       C  0.33712260  0.75023162  0.06780352    -0.13800
C1380       C  0.32805788  0.77036356  0.05191209     0.08400
C1381       C  0.34481683  0.80136776  0.04792246    -0.13800
C1382       C  0.37101655  0.81175616  0.05921402    -0.13800
C1383       C  0.38130693  0.79121513  0.07471939     0.08400
C1384       C  0.36377938  0.76062659  0.07920046    -0.13800
H1385       H  0.32410953  0.72625022  0.07106095     0.12400
H1386       H  0.33787646  0.81727571  0.03581296     0.12400
H1387       H  0.38370043  0.83569571  0.05545882     0.12400
H1388       H  0.37111359  0.74447781  0.09111063     0.12400
C1389       C  0.15886917  0.70013953  0.94525536    -0.13800
C1390       C  0.15859181  0.73202972  0.95490187     0.08400
C1391       C  0.13065189  0.75391080  0.95328753    -0.13800
C1392       C  0.10311591  0.74345259  0.94251307    -0.13800
C1393       C  0.10326232  0.71096976  0.93324532     0.08400
C1394       C  0.13170636  0.68977483  0.93463389    -0.13800
H1395       H  0.17963228  0.68249643  0.94662258     0.12400
H1396       H  0.12975780  0.77845686  0.96095660     0.12400
H1397       H  0.08178950  0.76038758  0.94163780     0.12400
H1398       H  0.13291635  0.66444860  0.92777185     0.12400
C1399       C  0.33176951  0.69278146  0.94976764    -0.13800
C1400       C  0.33139548  0.72696369  0.95668224     0.08400
C1401       C  0.35809093  0.74923225  0.95227849    -0.13800
C1402       C  0.38446326  0.73738064  0.94075045    -0.13800
C1403       C  0.38463311  0.70295106  0.93374895     0.08400
C1404       C  0.35803977  0.68085888  0.93871398    -0.13800
H1405       H  0.31204488  0.67487896  0.95343729     0.12400
H1406       H  0.35859092  0.77558091  0.95789943     0.12400
H1407       H  0.40448206  0.75500322  0.93729206     0.12400
H1408       H  0.35735697  0.65382803  0.93428204     0.12400
C1409       C  0.14302726  0.99250101  0.06244511    -0.13800
C1410       C  0.15698783  0.97030868  0.04867817     0.08400
C1411       C  0.14382881  0.93705870  0.04573466    -0.13800
C1412       C  0.11612751  0.92644331  0.05585872    -0.13800
C1413       C  0.10087758  0.94902495  0.06904913     0.08400
C1414       C  0.11500982  0.98184203  0.07265077    -0.13800
H1415       H  0.15319987  0.01828789  0.06481887     0.12400
H1416       H  0.15460890  0.91964281  0.03523469     0.12400
H1417       H  0.10648082  0.90066638  0.05300942     0.12400
H1418       H  0.10382438  0.99956027  0.08283277     0.12400
C1419       C  0.33690900  0.93954786  0.05308570    -0.13800
C1420       C  0.32894540  0.97503973  0.05225567     0.08400
C1421       C  0.34671263  0.99912772  0.06331291    -0.13800
C1422       C  0.37363785  0.98784846  0.07421059    -0.13800
C1423       C  0.38269282  0.95244724  0.07410629     0.08400
C1424       C  0.36329950  0.92833182  0.06400582    -0.13800
H1425       H  0.32318209  0.92062258  0.04481508     0.12400
H1426       H  0.34053738  0.02665277  0.06287890     0.12400
H1427       H  0.38821716  0.00683782  0.08190031     0.12400
H1428       H  0.36907524  0.90071242  0.06403021     0.12400
C1429       C  0.10488440  0.51118960  0.94374435    -0.13800
C1430       C  0.10927449  0.53790210  0.93027888     0.08400
C1431       C  0.14132452  0.55173864  0.92780926    -0.13800
C1432       C  0.16720930  0.54217533  0.93968658    -0.13800
C1433       C  0.16254345  0.51725997  0.95399658     0.08400
C1434       C  0.13142634  0.50064386  0.95534264    -0.13800
H1435       H  0.08074711  0.49979904  0.94596870     0.12400
H1436       H  0.14658126  0.57131221  0.91714738     0.12400
H1437       H  0.19053778  0.55570163  0.93825996     0.12400
H1438       H  0.13755684  0.96921560  0.95193788     0.12400
C1439       C  0.36463518  0.50000442  0.95736459    -0.13800
C1440       C  0.33582656  0.52077843  0.95821993     0.08400
C1441       C  0.33403377  0.55055273  0.94676464    -0.13800
C1442       C  0.36008375  0.55951581  0.93473001    -0.13800
C1443       C  0.38902736  0.53903465  0.93364573     0.08400
C1444       C  0.39106816  0.50903202  0.94512884    -0.13800
H1445       H  0.36674179  0.47708376  0.96632158     0.12400
H1446       H  0.31255060  0.56736824  0.94740627     0.12400
H1447       H  0.35741293  0.58301470  0.92628564     0.12400
H1448       H  0.41289448  0.49275344  0.94468261     0.12400
C1449       C  0.17731001  0.51923338  0.69243249    -0.13800
C1450       C  0.16127421  0.51665233  0.67477041     0.08400
C1451       C  0.14772521  0.98261594  0.67308234    -0.13800
C1452       C  0.14227526  0.95784431  0.68744551    -0.13800
C1453       C  0.15439741  0.96342881  0.70593625     0.08400
C1454       C  0.17310046  0.49340445  0.70621497    -0.13800
H1455       H  0.19358834  0.54092701  0.69549437     0.12400
H1456       H  0.13834896  0.97775577  0.65890825     0.12400
H1457       H  0.12860531  0.93430309  0.68417128     0.12400
H1458       H  0.18577608  0.49577114  0.71970300     0.12400
C1459       C  0.14694765  0.79043985  0.68875182    -0.13800
C1460       C  0.15878037  0.78448145  0.70726615     0.08400
C1461       C  0.17470148  0.75279368  0.71130347    -0.13800
C1462       C  0.17758081  0.72701379  0.69734568    -0.13800
C1463       C  0.16541189  0.73278702  0.67888328     0.08400
C1464       C  0.15059681  0.76495165  0.67461788    -0.13800
H1465       H  0.13461228  0.81472727  0.68530048     0.12400
H1466       H  0.18453947  0.74786059  0.72536839     0.12400
H1467       H  0.19007427  0.70294598  0.70096857     0.12400
H1468       H  0.14158477  0.77019025  0.66040027     0.12400
C1469       C  0.32903953  0.48476685  0.67275358    -0.13800
C1470       C  0.31049690  0.51431345  0.67791644     0.08400
C1471       C  0.29949102  0.51772008  0.69684822    -0.13800
C1472       C  0.30656329  0.99416963  0.71175950    -0.13800
C1473       C  0.32378430  0.96346960  0.70715703     0.08400
C1474       C  0.33484770  0.95842123  0.68834840    -0.13800
H1475       H  0.33788381  0.48160067  0.65827512     0.12400
H1476       H  0.28486372  0.54005465  0.70119290     0.12400
H1477       H  0.29768372  0.99849601  0.72614653     0.12400
H1478       H  0.34841687  0.93503233  0.68453387     0.12400
C1479       C  0.32877529  0.76037074  0.67597622    -0.13800
C1480       C  0.31142948  0.73011243  0.68120429     0.08400
C1481       C  0.30024973  0.72652729  0.70009848    -0.13800
C1482       C  0.30611840  0.75289833  0.71344907    -0.13800
C1483       C  0.32353312  0.78312234  0.70820486     0.08400
C1484       C  0.33502655  0.78652109  0.68939584    -0.13800
H1485       H  0.33748129  0.76375622  0.66148215     0.12400
H1486       H  0.28623067  0.70384042  0.70448623     0.12400
H1487       H  0.29699580  0.74983453  0.72788033     0.12400
H1488       H  0.34881208  0.80947568  0.68512349     0.12400
C1489       C  0.17217011  0.97927756  0.30530600    -0.13800
C1490       C  0.16203083  0.98260566  0.32438588     0.08400
C1491       C  0.14583263  0.50785695  0.32886658    -0.13800
C1492       C  0.13899513  0.53405202  0.31558701    -0.13800
C1493       C  0.15180372  0.53202863  0.29699218     0.08400
C1494       C  0.16430491  0.00510810  0.29200582    -0.13800
H1495       H  0.18695583  0.95719288  0.30076349     0.12400
H1496       H  0.13616908  0.51033191  0.34321064     0.12400
H1497       H  0.12376549  0.55600107  0.31983072     0.12400
H1498       H  0.17306581  0.00242777  0.27747703     0.12400
C1499       C  0.16803078  0.77092646  0.30490633    -0.13800
C1500       C  0.15819468  0.76905515  0.32409005     0.08400
C1501       C  0.13945094  0.74026630  0.33022529    -0.13800
C1502       C  0.13087314  0.71370633  0.31741803    -0.13800
C1503       C  0.14147512  0.71521076  0.29835431     0.08400
C1504       C  0.15997262  0.74416352  0.29222901    -0.13800
H1505       H  0.18296222  0.79241918  0.29978792     0.12400
H1506       H  0.13166230  0.73823488  0.34496388     0.12400
H1507       H  0.11639088  0.69174393  0.32241202     0.12400
H1508       H  0.16862047  0.74575798  0.27763017     0.12400
C1509       C  0.35043212  0.97394460  0.31788040    -0.13800
C1510       C  0.32275705  0.98055424  0.32938566     0.08400
C1511       C  0.30973519  0.51633281  0.33001792    -0.13800
C1512       C  0.32008460  0.54142781  0.31684029    -0.13800
C1513       C  0.34728742  0.53506997  0.30485798     0.08400
C1514       C  0.36356349  0.50262855  0.30617986    -0.13800
H1515       H  0.36390956  0.94964547  0.31931119     0.12400
H1516       H  0.28863835  0.52207619  0.33899885     0.12400
H1517       H  0.30664995  0.56583763  0.31590342     0.12400
H1518       H  0.38459978  0.49703071  0.29712144     0.12400
C1519       C  0.35043561  0.77256267  0.31828760    -0.13800
C1520       C  0.32220802  0.76644889  0.32940313     0.08400
C1521       C  0.30523922  0.73469452  0.32744752    -0.13800
C1522       C  0.31611882  0.70953160  0.31446355    -0.13800
C1523       C  0.34463538  0.71525148  0.30349303     0.08400
C1524       C  0.36182360  0.74694914  0.30557529    -0.13800
H1525       H  0.36380973  0.79692928  0.31961183     0.12400
H1526       H  0.28312623  0.72961664  0.33570142     0.12400
H1527       H  0.30221220  0.68554459  0.31291337     0.12400
H1528       H  0.38390097  0.75188084  0.29726840     0.12400
C1529       C  0.09050315  0.74887480  0.55945139    -0.13800
C1530       C  0.07483760  0.72293269  0.54860313     0.08400
C1531       C  0.08640619  0.68848575  0.54928374    -0.13800
C1532       C  0.11457340  0.68044111  0.55965357    -0.13800
C1533       C  0.13126086  0.70652127  0.56986149     0.08400
C1534       C  0.11847724  0.74061514  0.57021712    -0.13800
H1535       H  0.08168835  0.77559025  0.55907417     0.12400
H1536       H  0.07445270  0.66818320  0.54106705     0.12400
H1537       H  0.12377356  0.65388744  0.55935786     0.12400
H1538       H  0.13099137  0.76108854  0.57799865     0.12400
C1539       C  0.39158290  0.75485787  0.56493138    -0.13800
C1540       C  0.40521674  0.73295234  0.55092774     0.08400
C1541       C  0.39352891  0.69887647  0.54871795    -0.13800
C1542       C  0.36729704  0.68719031  0.55973070    -0.13800
C1543       C  0.35225214  0.70947847  0.57309226     0.08400
C1544       C  0.36509271  0.74308974  0.57606149    -0.13800
H1545       H  0.40073699  0.78122038  0.56676456     0.12400
H1546       H  0.40417723  0.68169596  0.53806159     0.12400
H1547       H  0.35816515  0.66094609  0.55736961     0.12400
H1548       H  0.35388394  0.76061059  0.58633043     0.12400
C1549       C  0.08419543  0.74595017  0.44163639    -0.13800
C1550       C  0.06832484  0.77002719  0.45371910     0.08400
C1551       C  0.07855656  0.80491639  0.45384607    -0.13800
C1552       C  0.10525247  0.81543843  0.44274795    -0.13800
C1553       C  0.12224275  0.79129374  0.43124230     0.08400
C1554       C  0.11105355  0.75659249  0.43035887    -0.13800
H1555       H  0.07652106  0.71884842  0.44147129     0.12400
H1556       H  0.06647524  0.82377452  0.46304830     0.12400
H1557       H  0.11318425  0.84241835  0.44357019     0.12400
H1558       H  0.12387350  0.73751319  0.42166184     0.12400
C1559       C  0.38367817  0.75468123  0.44639989    -0.13800
C1560       C  0.40003511  0.78142240  0.45628711     0.08400
C1561       C  0.38914578  0.81599887  0.45441585    -0.13800
C1562       C  0.36123566  0.82354525  0.44361029    -0.13800
C1563       C  0.34401334  0.79672019  0.43425550     0.08400
C1564       C  0.35595889  0.76234428  0.43527184    -0.13800
H1565       H  0.39177420  0.72783031  0.44779838     0.12400
H1566       H  0.40151519  0.83690797  0.46194408     0.12400
H1567       H  0.35263768  0.85032150  0.44290924     0.12400
H1568       H  0.34294587  0.74127212  0.42827648     0.12400
C1569       C  0.09173302  0.50237415  0.55976288    -0.13800
C1570       C  0.07711744  0.52389894  0.54597845     0.08400
C1571       C  0.09039506  0.55685694  0.54221295    -0.13800
C1572       C  0.11848274  0.56799565  0.55168796    -0.13800
C1573       C  0.13394821  0.54639339  0.56518189     0.08400
C1574       C  0.12005303  0.51363693  0.56938561    -0.13800
H1575       H  0.08172851  0.47668061  0.56266974     0.12400
H1576       H  0.07935500  0.57366366  0.53157739     0.12400
H1577       H  0.12814230  0.59349042  0.54816071     0.12400
H1578       H  0.13149166  0.49651714  0.57970820     0.12400
C1579       C  0.38191148  0.49648880  0.55433561    -0.13800
C1580       C  0.40617910  0.52095346  0.54907921     0.08400
C1581       C  0.40381363  0.55531484  0.55580475    -0.13800
C1582       C  0.37656741  0.56576015  0.56657906    -0.13800
C1583       C  0.35143308  0.54191421  0.57112072     0.08400
C1584       C  0.35479162  0.50684958  0.56552175    -0.13800
H1585       H  0.39248428  0.97252608  0.55531987     0.12400
H1586       H  0.42206887  0.57457942  0.55169323     0.12400
H1587       H  0.37440908  0.59296666  0.57069267     0.12400
H1588       H  0.34501372  0.99052020  0.57520872     0.12400
C1589       C  0.09943903  0.93486079  0.43703837    -0.13800
C1590       C  0.12249896  0.95859436  0.42958041     0.08400
C1591       C  0.11740094  0.99458597  0.43216031    -0.13800
C1592       C  0.09074302  0.00636789  0.44328623    -0.13800
C1593       C  0.06931313  0.98217864  0.45198648     0.08400
C1594       C  0.07329216  0.94649457  0.44823813    -0.13800
H1595       H  0.10251939  0.90700156  0.43495324     0.12400
H1596       H  0.13501675  0.01329766  0.42661799     0.12400
H1597       H  0.08787165  0.03407648  0.44598684     0.12400
H1598       H  0.05687007  0.92749368  0.45467281     0.12400
C1599       C  0.38312773  0.94798695  0.46098540    -0.13800
C1600       C  0.39891711  0.97847785  0.45482851     0.08400
C1601       C  0.38677970  0.99641521  0.43888130    -0.13800
C1602       C  0.35839058  0.98438893  0.42958108    -0.13800
C1603       C  0.34191139  0.95440396  0.43619557     0.08400
C1604       C  0.35501905  0.93604356  0.45178712    -0.13800
H1605       H  0.39224489  0.93382259  0.47324883     0.12400
H1606       H  0.39874671  0.02008299  0.43399646     0.12400
H1607       H  0.34896426  0.99887190  0.41752674     0.12400
H1608       H  0.34342295  0.91265693  0.45723072     0.12400
N1609       N  0.93708641  0.49590736  0.50420536    -0.37000
N1610       N  0.48694183  0.50028976  0.46839401    -0.57600
N1611       N  0.53911202  0.00702410  0.49676915    -0.37000
N1612       N  0.49157934  0.01244500  0.52749138    -0.57600
C1613       C  0.91702511  0.48443242  0.49018562     0.26500
C1614       C  0.92134010  0.01318662  0.52052002     0.26500
C1615       C  0.55671872  0.50586438  0.48061948     0.26500
C1616       C  0.55916641  0.01709005  0.51117217     0.26500
C1617       C  0.95699009  0.48614801  0.46294487     0.35200
C1618       C  0.51274906  0.48983558  0.45755688     0.35200
C1619       C  0.96537924  0.00511840  0.54471392     0.35200
C1620       C  0.51917203  0.01177847  0.53816223     0.35200
C1621       C  0.88649413  0.47594248  0.49791569    -0.22300
C1622       C  0.89036715  0.02492666  0.51507817    -0.22300
C1623       C  0.58832873  0.51712520  0.48482549    -0.22300
C1624       C  0.58964135  0.02641167  0.50372158    -0.22300
C1625       C  0.96494454  0.48448008  0.44372777    -0.23400
C1626       C  0.50155682  0.47470313  0.44082892    -0.23400
C1627       C  0.97682332  0.00222525  0.56321190    -0.23400
C1628       C  0.51088699  0.01009520  0.55732614    -0.23400
C1629       C  0.92481070  0.48288727  0.47048354    -0.18700
C1630       C  0.93230756  0.01119003  0.53962498    -0.18700
C1631       C  0.55141309  0.01664934  0.53093457    -0.18700
C1632       C  0.54625253  0.49442192  0.46242076    -0.18700
H1633       H  0.86492319  0.46662807  0.49045893     0.14200
H1634       H  0.87081177  0.03473746  0.52416425     0.14200
H1635       H  0.60877552  0.52055475  0.47506226     0.14200
H1636       H  0.61120027  0.03494342  0.51145708     0.14200
H1637       H  0.94818256  0.48220852  0.43184089     0.12500
H1638       H  0.51619768  0.46422778  0.42922879     0.12500
H1639       H  0.96236835  0.00201920  0.57621285     0.12500
H1640       H  0.52747567  0.01009504  0.56935584     0.12500
H1641       H  0.95963921  0.50814594  0.50229815     0.25700
H1642       H  0.51650861  0.99466804  0.49821804     0.25700
N1643       N  0.54060904  0.25014031  0.49940047    -0.37000
N1644       N  0.99037300  0.24042737  0.53093226    -0.57600
N1645       N  0.93779937  0.25234245  0.50386206    -0.37000
N1646       N  0.98513159  0.25542033  0.47239324    -0.57600
C1647       C  0.56061254  0.25194209  0.51474493     0.26500
C1648       C  0.55835709  0.26090942  0.48408398     0.26500
C1649       C  0.92015710  0.24118446  0.51910201     0.26500
C1650       C  0.91761599  0.25101221  0.48859373     0.26500
C1651       C  0.52017512  0.23564914  0.54009596     0.35200
C1652       C  0.96492870  0.24131276  0.54336557     0.35200
C1653       C  0.51371103  0.26030303  0.45976331     0.35200
C1654       C  0.95795116  0.26689758  0.46328787     0.35200
C1655       C  0.59150993  0.26360064  0.50910176    -0.22300
C1656       C  0.59008890  0.26930922  0.48979579    -0.22300
C1657       C  0.88824744  0.23330897  0.51340682    -0.22300
C1658       C  0.88668839  0.23950140  0.49419304    -0.22300
C1659       C  0.51165930  0.21945140  0.55708670    -0.23400
C1660       C  0.97652615  0.23998695  0.56189052    -0.23400
C1661       C  0.50220889  0.26097692  0.44120552    -0.23400
C1662       C  0.96654310  0.28257378  0.44618504    -0.23400
C1663       C  0.55276742  0.24032334  0.53337796    -0.18700
C1664       C  0.54719573  0.26238401  0.46497844    -0.18700
C1665       C  0.92544580  0.26260947  0.47002696    -0.18700
C1666       C  0.93150189  0.23892185  0.53814168    -0.18700
H1667       H  0.61299272  0.26725048  0.51797080     0.14200
H1668       H  0.61028935  0.27834658  0.48095809     0.14200
H1669       H  0.86791624  0.22439873  0.52217292     0.14200
H1670       H  0.86510286  0.23623085  0.48536241     0.14200
H1671       H  0.52804279  0.20804049  0.56750089     0.12500
H1672       H  0.96213599  0.23919085  0.57490715     0.12500
H1673       H  0.51667018  0.26121300  0.42820668     0.12500
H1674       H  0.95022824  0.29407270  0.43575997     0.12500
H1675       H  0.51761717  0.23830515  0.49910822     0.25700
H1676       H  0.96088950  0.26396504  0.50416908     0.25700
C1677       C  0.81196052  0.44173754  0.42711774     0.42000
N1678       N  0.77301170  0.43386538  0.40710355     0.00900
C1679       C  0.67323229  0.28787732  0.40061831    -0.07000
H1680       H  0.80730259  0.26508732  0.39917863     0.06400
C1681       C  0.80826765  0.32730153  0.33733310    -0.07300
Co1682     Co  0.73450959  0.36964374  0.41651873     0.74200
N1683       N  0.77253039  0.30711495  0.40393519    -0.26500
Co1684     Co  0.74065916  0.30834530  0.38063999     0.74100
C1685       C  0.81934850  0.29256585  0.34333076     0.42100
N1686       N  0.78376386  0.41486503  0.35106593     0.00500
N1687       N  0.78045606  0.31019360  0.36192208     0.00600
N1688       N  0.67120494  0.33003524  0.42315518    -0.47300
H1689       H  0.79729909  0.39317652  0.44437087     0.06400
N1690       N  0.76989235  0.33084975  0.41745288     0.00900
N1691       N  0.70975820  0.31105228  0.35706746     0.00700
C1692       C  0.68033536  0.29464187  0.33326523     0.42300
N1693       N  0.78044077  0.43808973  0.36486376    -0.25900
C1694       C  0.67236661  0.41113527  0.42588741    -0.06900
N1695       N  0.79793686  0.45502979  0.41123412    -0.47100
N1696       N  0.69061450  0.28549715  0.35085170    -0.47300
C1697       C  0.65593989  0.44214974  0.41888197     0.42000
N1698       N  0.69847432  0.33213393  0.41291694     0.00900
N1699       N  0.70962630  0.43756481  0.36059979    -0.26000
N1700       N  0.77024477  0.40777953  0.41928454    -0.26500
N1701       N  0.71310410  0.41519853  0.34639275     0.00500
H1702       H  0.68613630  0.48759604  0.36286254     0.06400
H1703       H  0.69579134  0.34299209  0.31584021     0.06500
N1704       N  0.70032850  0.30818695  0.39944715    -0.26500
N1705       N  0.78396302  0.33588815  0.34952488    -0.26100
N1706       N  0.70055386  0.43414051  0.40288345     0.00900
C1707       C  0.81156277  0.30022562  0.42582429     0.42300
C1708       C  0.80120347  0.46457885  0.36151187    -0.07400
N1709       N  0.71299955  0.33657568  0.34453790    -0.26100
H1710       H  0.81365521  0.34087300  0.32416757     0.06500
N1711       N  0.79254078  0.32761163  0.43075822    -0.47300
H1712       H  0.80075971  0.48936861  0.36892423     0.06400
C1713       C  0.68142831  0.45544668  0.33539132     0.42100
C1714       C  0.79360698  0.41068676  0.43248461    -0.06900
Co1715     Co  0.74082435  0.43672777  0.38393324     0.73800
N1716       N  0.80568173  0.42464837  0.33805529    -0.47100
C1717       C  0.65379901  0.30308083  0.41623328     0.42400
N1718       N  0.67493547  0.45571398  0.40472070    -0.47100
Co1719     Co  0.74859334  0.37557945  0.34759186     0.73900
C1720       C  0.69512766  0.32870546  0.32912601    -0.07400
C1721       C  0.79831775  0.28628135  0.40797911    -0.06900
N1722       N  0.69928233  0.40811678  0.41513892    -0.26500
N1723       N  0.80086987  0.28394265  0.35864459    -0.47200
H1724       H  0.66747935  0.26606823  0.39141438     0.06400
C1725       C  0.68958116  0.46338308  0.35514925    -0.07400
Cl1726     Cl  0.74117461  0.37260679  0.38211199    -0.50400
C1727       C  0.81801206  0.45579171  0.34367356     0.42200
H1728       H  0.66585456  0.39425898  0.43766445     0.06400
N1729       N  0.69700928  0.42522694  0.33095555    -0.47100
C1730       C  0.82191405  0.05593576  0.58319416     0.42000
N1731       N  0.77646397  0.06291233  0.59831353     0.00900
C1732       C  0.67875304  0.21113112  0.59612677    -0.07000
H1733       H  0.81000566  0.23220543  0.60929525     0.06400
C1734       C  0.78921327  0.16895934  0.67172117    -0.07300
Co1735     Co  0.74233542  0.12810004  0.58559065     0.74200
N1736       N  0.77716762  0.18977155  0.60185907    -0.26500
Co1737     Co  0.73887097  0.18904395  0.62184021     0.74100
C1738       C  0.80184338  0.20407067  0.66772152     0.42100
N1739       N  0.77031878  0.08153109  0.65445257     0.00500
N1740       N  0.77229525  0.18643791  0.64420761     0.00600
N1741       N  0.68359866  0.17064896  0.57284083    -0.47300
H1742       H  0.81326391  0.10454153  0.56480929     0.06400
N1743       N  0.77825395  0.16596575  0.58829887     0.00900
N1744       N  0.70138209  0.18691295  0.64209698     0.00700
C1745       C  0.66853280  0.20491796  0.66418525     0.42300
N1746       N  0.77129754  0.05807767  0.64064898    -0.25900
C1747       C  0.68171701  0.08848671  0.57091528    -0.06900
N1748       N  0.80247980  0.04190936  0.59690659    -0.47100
N1749       N  0.68299763  0.21375408  0.64750013    -0.47300
C1750       C  0.66278225  0.05798688  0.57645312     0.42000
N1751       N  0.70679128  0.16689919  0.58577753     0.00900
N1752       N  0.70027879  0.05927174  0.63844800    -0.26000
N1753       N  0.77783919  0.08926553  0.58622085    -0.26500
N1754       N  0.69944589  0.08276666  0.65221793     0.00500
H1755       H  0.68183192  0.00681391  0.63680857     0.06400
H1756       H  0.67731666  0.15525884  0.68177296     0.06500
N1757       N  0.70475894  0.19017592  0.59957805    -0.26500
N1758       N  0.77104380  0.16039766  0.65652528    -0.26100
N1759       N  0.70349126  0.06412824  0.59568422     0.00900
C1760       C  0.82180921  0.19627519  0.58371681     0.42300
C1761       C  0.78998398  0.03109730  0.64637587    -0.07400
N1762       N  0.70002445  0.16075965  0.65431031    -0.26100
H1763       H  0.78917273  0.15483232  0.68506311     0.06500
N1764       N  0.80436385  0.16898480  0.57718226    -0.47300
H1765       H  0.79116987  0.00600803  0.63929798     0.06400
C1766       C  0.66900866  0.04077153  0.66270657     0.42100
C1767       C  0.80555600  0.08688423  0.57598955    -0.06900
Co1768     Co  0.73779989  0.06022789  0.61810294     0.73800
N1769       N  0.78681639  0.07144073  0.66970164    -0.47100
C1770       C  0.66474846  0.19782366  0.57830135     0.42400
N1771       N  0.67768888  0.04377513  0.59190761    -0.47100
Co1772     Co  0.73525890  0.12138619  0.65445568     0.73900
C1773       C  0.67942125  0.16936220  0.66846847    -0.07400
C1774       C  0.80372845  0.21062998  0.60004309    -0.06900
N1775       N  0.70610779  0.09031864  0.58355351    -0.26500
N1776       N  0.79035289  0.21290829  0.65035460    -0.47200
H1777       H  0.67056657  0.23248873  0.60506887     0.06400
C1778       C  0.68115007  0.03221788  0.64356906    -0.13400
Cl1779     Cl  0.73857300  0.12465477  0.62004881    -0.50400
C1780       C  0.79996731  0.03977427  0.66584336     0.42200
H1781       H  0.67787363  0.10624631  0.55915794     0.06400
N1782       N  0.68093257  0.07281527  0.66673611    -0.47100
N1783       N  0.69477820  0.49446190  0.00554110    -0.37000
N1784       N  0.74883481  0.00516828  0.97551092    -0.57600
N1785       N  0.79559898  0.49771203  0.00649749    -0.37000
N1786       N  0.74460078  0.49194880  0.03570876    -0.57600
C1787       C  0.67812851  0.00542970  0.98794395     0.26500
C1788       C  0.67620879  0.49800027  0.02149439     0.26500
C1789       C  0.81685830  0.00872628  0.99181920     0.26500
C1790       C  0.81398695  0.50031579  0.02252261     0.26500
C1791       C  0.72302913  0.00624524  0.96333459     0.35200
C1792       C  0.77669533  0.00625213  0.96483262     0.35200
C1793       C  0.71780239  0.48203474  0.04585342     0.35200
C1794       C  0.77107905  0.48372982  0.04642956     0.35200
C1795       C  0.64594900  0.01212419  0.99376840    -0.22300
C1796       C  0.64547022  0.51113819  0.01682601    -0.22300
C1797       C  0.84707503  0.01879821  0.99926870    -0.22300
C1798       C  0.84538675  0.51171621  0.01775035    -0.22300
C1799       C  0.73457000  0.00821664  0.94475993    -0.23400
C1800       C  0.76850635  0.00805944  0.94569419    -0.23400
C1801       C  0.72715560  0.46847900  0.06330365    -0.23400
C1802       C  0.76096073  0.46967412  0.06370924    -0.23400
C1803       C  0.68929966  0.00798272  0.96881161    -0.18700
C1804       C  0.68495856  0.48637308  0.03985903    -0.18700
C1805       C  0.80423975  0.48952929  0.04103418    -0.18700
C1806       C  0.80925097  0.00879531  0.97213554    -0.18700
H1807       H  0.62529578  0.02001846  0.98506424     0.14200
H1808       H  0.62504085  0.51641056  0.02637464     0.14200
H1809       H  0.86845566  0.02832749  0.99159576     0.14200
H1810       H  0.86609220  0.51577051  0.02713629     0.14200
H1811       H  0.72004984  0.01013050  0.93190606     0.12500
H1812       H  0.78523042  0.00998206  0.93368049     0.12500
H1813       H  0.71128477  0.45892348  0.07459202     0.12500
H1814       H  0.77628629  0.46113634  0.07539761     0.12500
H1815       H  0.71716384  0.48134479  0.00462565     0.25700
H1816       H  0.77262627  0.48602167  0.00552594     0.25700
N1817       N  0.69200187  0.25897419  0.00446604    -0.37000
N1818       N  0.74225260  0.26647738  0.03387067    -0.57600
N1819       N  0.79279936  0.26413182  0.00398327    -0.37000
N1820       N  0.74233744  0.25253046  0.97509081    -0.57600
C1821       C  0.67393165  0.25517650  0.02059620     0.26500
C1822       C  0.67339355  0.24699527  0.98988947     0.26500
C1823       C  0.81150901  0.26264552  0.01991827     0.26500
C1824       C  0.81209651  0.25377573  0.98919892     0.26500
C1825       C  0.71530748  0.27451833  0.04436303     0.35200
C1826       C  0.76850055  0.27679722  0.04419046     0.35200
C1827       C  0.71536978  0.25078448  0.96375739     0.35200
C1828       C  0.76925222  0.25246425  0.96353989     0.35200
C1829       C  0.64356540  0.24076255  0.01626547    -0.22300
C1830       C  0.64327091  0.23539378  0.99694940    -0.22300
C1831       C  0.84316236  0.25208845  0.01516587    -0.22300
C1832       C  0.84353911  0.24639454  0.99587924    -0.22300
C1833       C  0.72443718  0.28933136  0.06156060    -0.23400
C1834       C  0.75825727  0.29070274  0.06147251    -0.23400
C1835       C  0.72527596  0.24976466  0.94483490    -0.23400
C1836       C  0.75929783  0.25063397  0.94470582    -0.23400
C1837       C  0.68264875  0.26753293  0.03884650    -0.18700
C1838       C  0.68220565  0.24707020  0.97030649    -0.18700
C1839       C  0.80259237  0.25083361  0.96979156    -0.18700
C1840       C  0.80161420  0.27256993  0.03851534    -0.18700
H1841       H  0.62353675  0.23503247  0.02601825     0.14200
H1842       H  0.62295857  0.22436157  0.98902687     0.14200
H1843       H  0.86390960  0.24874747  0.02463354     0.14200
H1844       H  0.86474907  0.23773519  0.98774259     0.14200
H1845       H  0.70842807  0.29808752  0.07298466     0.12500
H1846       H  0.77354362  0.30080511  0.07280595     0.12500
H1847       H  0.70966278  0.24763795  0.93243062     0.12500
H1848       H  0.77494964  0.24937779  0.93219349     0.12500
H1849       H  0.71386432  0.27289721  0.00325193     0.25700
H1850       H  0.76929350  0.27466422  0.00306620     0.25700
C1851       C  0.91816575  0.05428319  0.92498628     0.42000
N1852       N  0.93597949  0.08588375  0.90195042     0.00900
C1853       C  0.57915553  0.08070044  0.84527592    -0.07000
H1854       H  0.60775301  0.10665075  0.91069728     0.06400
C1855       C  0.54046971  0.21242581  0.91685859    -0.07300
Co1856     Co  0.99753809  0.06263730  0.88313377     0.74200
N1857       N  0.56027030  0.09245869  0.90029967    -0.26500
Co1858     Co  0.55604166  0.12971754  0.87939226     0.74100
C1859       C  0.57390294  0.20018084  0.92248111     0.42100
N1860       N  0.95121728  0.18686259  0.90409510     0.00500
N1861       N  0.55439516  0.16706152  0.90050393     0.00600
N1862       N  0.54360148  0.03613046  0.84997409    -0.47300
H1863       H  0.96341119  0.01735136  0.92256568     0.06400
N1864       N  0.54046104  0.06548052  0.90291537     0.00900
N1865       N  0.55111125  0.17017455  0.85935467     0.00700
C1866       C  0.56001742  0.21156571  0.83918659     0.42300
N1867       N  0.93061485  0.16052079  0.90179725    -0.25900
C1868       C  0.95604074  0.03223516  0.85109009    -0.06900
N1869       N  0.91140997  0.08174821  0.91394010    -0.47100
N1870       N  0.57220646  0.18088958  0.84598745    -0.47300
C1871       C  0.92640881  0.04080527  0.84061429     0.42000
N1872       N  0.53760816  0.06213824  0.86176341     0.00900
N1873       N  0.93244516  0.16363478  0.86037220    -0.26000
N1874       N  0.96015018  0.06311840  0.90432007    -0.26500
N1875       N  0.95289449  0.19007806  0.86286421     0.00500
H1876       H  0.89132565  0.15681566  0.84104688     0.06400
H1877       H  0.51449916  0.24201521  0.84976111     0.06500
N1878       N  0.55750302  0.08908707  0.85924687    -0.26500
N1879       N  0.53006419  0.18949678  0.90329549    -0.26100
N1880       N  0.93671802  0.08198889  0.86070206     0.00900
C1881       C  0.58230716  0.05719118  0.92142633     0.42300
C1882       C  0.90500515  0.16405466  0.91348120    -0.07400
N1883       N  0.52701810  0.19282531  0.86204186    -0.26100
H1884       H  0.52776331  0.23609614  0.92103354     0.06500
N1885       N  0.55353242  0.04259501  0.91518494    -0.47300
H1886       H  0.88321756  0.14778723  0.91322283     0.06400
C1887       C  0.92351563  0.20681229  0.83925262     0.42100
C1888       C  0.95066539  0.04099095  0.91845708    -0.06900
Co1889     Co  0.93357561  0.12295483  0.88072560     0.73800
N1890       N  0.93920037  0.21026550  0.91652153    -0.47100
C1891       C  0.56934533  0.04542269  0.83904401     0.42400
N1892       N  0.91505994  0.07181769  0.84756499    -0.47100
Co1893     Co  0.98932513  0.19125241  0.88330080     0.73900
C1894       C  0.53018483  0.21919212  0.84987983    -0.07400
C1895       C  0.58639099  0.08980146  0.91145759    -0.06900
N1896       N  0.96032495  0.05867188  0.86313338    -0.26500
N1897       N  0.57995765  0.17228425  0.91156010    -0.47200
H1898       H  0.60030875  0.09609480  0.84105174     0.06400
C1899       C  0.91212532  0.17210230  0.84581855    -0.07400
Cl1900     Cl  0.99330434  0.12694104  0.88126627    -0.50400
C1901       C  0.91027535  0.19668122  0.92333950     0.42200
H1902       H  0.97096804  0.00882421  0.85066605     0.06400
N1903       N  0.94857499  0.21567603  0.85062074    -0.47100
N1904       N  0.62621118  0.37482909  0.78315348    -0.37000
N1905       N  0.64007879  0.42914477  0.75547133    -0.57600
N1906       N  0.64553536  0.37496976  0.72632257    -0.37000
N1907       N  0.63607746  0.32066118  0.75473747    -0.57600
C1908       C  0.62885235  0.40299186  0.79472516     0.26500
C1909       C  0.62696083  0.34595636  0.79427265     0.26500
C1910       C  0.65768177  0.40318595  0.71711467     0.26500
C1911       C  0.65630650  0.34638340  0.71681821     0.26500
C1912       C  0.62783158  0.44902530  0.76977293     0.35200
C1913       C  0.63828532  0.44885180  0.73953211     0.35200
C1914       C  0.62212758  0.30134982  0.76869940     0.35200
C1915       C  0.63339430  0.30170828  0.73859611     0.35200
C1916       C  0.63167744  0.39188365  0.81344599    -0.22300
C1917       C  0.63055397  0.35585957  0.81315790    -0.22300
C1918       C  0.67659069  0.39246750  0.70166988    -0.22300
C1919       C  0.67576048  0.35653951  0.70149651    -0.22300
C1920       C  0.61872277  0.48160741  0.76292899    -0.23400
C1921       C  0.62532572  0.48147894  0.74377052    -0.23400
C1922       C  0.61070830  0.26992578  0.76140638    -0.23400
C1923       C  0.61794192  0.27013520  0.74230515    -0.23400
C1924       C  0.62498739  0.43825278  0.78895717    -0.18700
C1925       C  0.62038407  0.31144134  0.78801438    -0.18700
C1926       C  0.64684353  0.31166024  0.72086513    -0.18700
C1927       C  0.64965424  0.43822003  0.72138422    -0.18700
H1928       H  0.63336108  0.40810397  0.82603909     0.14200
H1929       H  0.63115649  0.33890903  0.82549517     0.14200
H1930       H  0.68929634  0.40885070  0.69143772     0.14200
H1931       H  0.68771414  0.33984790  0.69110187     0.14200
H1932       H  0.60972740  0.00433416  0.76966646     0.12500
H1933       H  0.62475509  0.00215450  0.73326030     0.12500
H1934       H  0.59834792  0.24905474  0.76899204     0.12500
H1935       H  0.61239364  0.24946900  0.73228977     0.12500
H1936       H  0.61915957  0.37545765  0.76896182     0.25700
H1937       H  0.62751926  0.37538981  0.73691634     0.25700
N1938       N  0.84989654  0.42941361  0.75492423    -0.37000
N1939       N  0.86968963  0.37574986  0.78211055    -0.57600
N1940       N  0.84872386  0.32163295  0.75591240    -0.37000
N1941       N  0.83225878  0.37509702  0.72798544    -0.57600
C1942       C  0.86769184  0.44862001  0.76738179     0.26500
C1943       C  0.84818196  0.44790632  0.73849942     0.26500
C1944       C  0.86672977  0.30275560  0.76842755     0.26500
C1945       C  0.84696647  0.30269631  0.73965471     0.26500
C1946       C  0.87295383  0.40444664  0.79323209     0.35200
C1947       C  0.87246908  0.34764171  0.79373175     0.35200
C1948       C  0.81989760  0.40326808  0.71886857     0.35200
C1949       C  0.81911620  0.34671339  0.71946262     0.35200
C1950       C  0.87714663  0.47975298  0.75885507    -0.22300
C1951       C  0.86499609  0.47922314  0.74060647    -0.22300
C1952       C  0.87646830  0.27157812  0.76002805    -0.22300
C1953       C  0.86403573  0.27156207  0.74187332    -0.22300
C1954       C  0.87780177  0.39452964  0.81200226    -0.23400
C1955       C  0.87732855  0.35860391  0.81233819    -0.23400
C1956       C  0.79835801  0.39275378  0.70470100    -0.23400
C1957       C  0.79787814  0.35686124  0.70507429    -0.23400
C1958       C  0.87482363  0.43926886  0.78641435    -0.18700
C1959       C  0.83044433  0.43797443  0.72201895    -0.18700
C1960       C  0.82894426  0.31199960  0.72322146    -0.18700
C1961       C  0.87375123  0.31240074  0.78742409    -0.18700
H1962       H  0.88285776  0.00191026  0.76780162     0.14200
H1963       H  0.85919097  0.00021838  0.73293045     0.14200
H1964       H  0.89124959  0.25102694  0.76626056     0.14200
H1965       H  0.86730260  0.25094547  0.73147434     0.14200
H1966       H  0.88189956  0.41141463  0.82413641     0.12500
H1967       H  0.88089416  0.34245090  0.82481089     0.12500
H1968       H  0.78491772  0.40916956  0.69487027     0.12500
H1969       H  0.78407306  0.34015746  0.69556444     0.12500
H1970       H  0.83695307  0.40666145  0.75809350     0.25700
H1971       H  0.83556882  0.34436054  0.75892871     0.25700
N1972       N  0.64223284  0.12446971  0.27401185    -0.37000
N1973       N  0.63367794  0.06999940  0.24534957    -0.57600
N1974       N  0.62024188  0.12336985  0.21745964    -0.37000
N1975       N  0.63231128  0.17764500  0.24535011    -0.57600
C1976       C  0.65565800  0.09626326  0.28256997     0.26500
C1977       C  0.65498849  0.15313184  0.28252088     0.26500
C1978       C  0.62441924  0.09487122  0.20628265     0.26500
C1979       C  0.62385369  0.15194400  0.20629199     0.26500
C1980       C  0.63203305  0.05109435  0.26157506     0.35200
C1981       C  0.61957823  0.05035184  0.23161259     0.35200
C1982       C  0.62979117  0.19677222  0.26145045     0.35200
C1983       C  0.61718559  0.19624544  0.23160954     0.35200
C1984       C  0.67741010  0.10707691  0.29656809    -0.22300
C1985       C  0.67701445  0.14305786  0.29651952    -0.22300
C1986       C  0.63144573  0.10546330  0.18780216    -0.22300
C1987       C  0.63107591  0.14153621  0.18780835    -0.22300
C1988       C  0.61673558  0.01935764  0.25821570    -0.23400
C1989       C  0.60856288  0.01898710  0.23924514    -0.23400
C1990       C  0.61281160  0.22750535  0.25804193    -0.23400
C1991       C  0.60448235  0.22703383  0.23912529    -0.23400
C1992       C  0.64668378  0.06124531  0.27890730    -0.18700
C1993       C  0.64529651  0.18785764  0.27866108    -0.18700
C1994       C  0.61714940  0.18668136  0.21218445    -0.18700
C1995       C  0.61846007  0.05995368  0.21215207    -0.18700
H1996       H  0.69187938  0.09075183  0.30594360     0.14200
H1997       H  0.69113321  0.15983646  0.30582988     0.14200
H1998       H  0.63555660  0.08892675  0.17550511     0.14200
H1999       H  0.63480306  0.15817276  0.17551948     0.14200
H2000       H  0.61087947  0.50223565  0.27255879     0.12500
H2001       H  0.59026690  0.50167675  0.23696086     0.12500
H2002       H  0.60713270  0.24809195  0.26811661     0.12500
H2003       H  0.59083998  0.24722199  0.23179340     0.12500
H2004       H  0.62264967  0.12409132  0.26446037     0.25700
H2005       H  0.61074198  0.12330179  0.23126500     0.25700
N2006       N  0.88313955  0.07141425  0.25769633    -0.37000
N2007       N  0.86902837  0.12490553  0.28532930    -0.57600
N2008       N  0.88453640  0.17849394  0.25737628    -0.37000
N2009       N  0.89559788  0.12500623  0.22895016    -0.57600
C2010       C  0.86690532  0.05284714  0.27121371     0.26500
C2011       C  0.88163484  0.05290488  0.24131997     0.26500
C2012       C  0.86813937  0.19699528  0.27082443     0.26500
C2013       C  0.88291946  0.19694264  0.24098069     0.26500
C2014       C  0.87026728  0.09669507  0.29688893     0.35200
C2015       C  0.87148607  0.15329658  0.29665768     0.35200
C2016       C  0.90800770  0.09645752  0.22013455     0.35200
C2017       C  0.90849624  0.15308913  0.21990221     0.35200
C2018       C  0.85466918  0.02233332  0.26327505    -0.22300
C2019       C  0.86404146  0.02233751  0.24439550    -0.22300
C2020       C  0.85558451  0.22734574  0.26280795    -0.22300
C2021       C  0.86505605  0.22736988  0.24396119    -0.22300
C2022       C  0.87405812  0.10714490  0.31564686    -0.23400
C2023       C  0.87500423  0.14307382  0.31549341    -0.23400
C2024       C  0.92919506  0.10644115  0.20555971    -0.23400
C2025       C  0.92948512  0.14238155  0.20540664    -0.23400
C2026       C  0.86469255  0.06205809  0.29070215    -0.18700
C2027       C  0.89814031  0.06178368  0.22420113    -0.18700
C2028       C  0.89941408  0.18800401  0.22389706    -0.18700
C2029       C  0.86615415  0.18791347  0.29032605    -0.18700
H2030       H  0.84437680  0.49885874  0.26885805     0.14200
H2031       H  0.86577799  0.49966887  0.23331262     0.14200
H2032       H  0.84127161  0.24753443  0.26979514     0.14200
H2033       H  0.85957400  0.24756816  0.23365655     0.14200
H2034       H  0.87535873  0.09065089  0.32814318     0.12500
H2035       H  0.87706504  0.15977066  0.32787790     0.12500
H2036       H  0.94282888  0.08963027  0.19594282     0.12500
H2037       H  0.94339268  0.15868788  0.19567805     0.12500
H2038       H  0.89776475  0.09337250  0.25997938     0.25700
H2039       H  0.89924066  0.15660366  0.25977430     0.25700
C2040       C  0.91792448  0.44522750  0.08294086     0.42000
N2041       N  0.96032919  0.43632132  0.10044601     0.00900
C2042       C  0.55094629  0.28789474  0.09922495    -0.07000
H2043       H  0.92293333  0.26942667  0.11018245     0.06400
C2044       C  0.94709178  0.33098534  0.17426107    -0.07300
Co2045     Co  0.99534015  0.37134533  0.08782351     0.74200
N2046       N  0.95782500  0.31075201  0.10369429    -0.26500
Co2047     Co  0.99614641  0.31023246  0.12377180     0.74100
C2048       C  0.93237974  0.29700367  0.16979669     0.42100
N2049       N  0.96693874  0.41702945  0.15724609     0.00500
N2050       N  0.96325577  0.31363527  0.14647809     0.00600
N2051       N  0.54740163  0.32902853  0.07628180    -0.47300
H2052       H  0.92922010  0.39722447  0.06443119     0.06400
N2053       N  0.95873507  0.33428552  0.08998977     0.00900
N2054       N  0.52888974  0.31223088  0.14422670     0.00700
C2055       C  0.56786495  0.29422121  0.16231654     0.42300
N2056       N  0.96485963  0.43990765  0.14321289    -0.25900
C2057       C  0.55003843  0.41071025  0.07433070    -0.06900
N2058       N  0.93510902  0.45811502  0.09791634    -0.47100
N2059       N  0.54964313  0.28621699  0.14697419    -0.47300
C2060       C  0.56911623  0.44087312  0.08031707     0.42000
N2061       N  0.03005085  0.33181755  0.08808619     0.00900
N2062       N  0.53082960  0.43971861  0.14109772    -0.26000
N2063       N  0.96040947  0.41053536  0.08798946    -0.26500
N2064       N  0.53273644  0.41700674  0.15520185     0.00500
H2065       H  0.55395447  0.48930659  0.13598205     0.06400
H2066       H  0.56178873  0.34184597  0.18217879     0.06500
N2067       N  0.03013822  0.30785682  0.10153939    -0.26500
N2068       N  0.96603549  0.33888999  0.15918550    -0.26100
N2069       N  0.03304656  0.43512513  0.09850679     0.00900
C2070       C  0.91464337  0.30559841  0.08419691     0.42300
C2071       C  0.94389107  0.46532306  0.14845296    -0.07400
N2072       N  0.53199125  0.33753381  0.15688975    -0.26100
H2073       H  0.94716679  0.34502369  0.18763286     0.06500
N2074       N  0.93373126  0.33203911  0.07819040    -0.47300
H2075       H  0.94075099  0.48983118  0.14099859     0.06400
C2076       C  0.56815275  0.45706094  0.16227956     0.42100
C2077       C  0.93489899  0.41414673  0.07630593    -0.06900
Co2078     Co  0.99842034  0.43862180  0.12057816     0.73800
N2079       N  0.94880018  0.42594546  0.17217584    -0.47100
C2080       C  0.56610336  0.30191553  0.08181812     0.42400
N2081       N  0.55359121  0.45494349  0.09564986    -0.47100
Co2082     Co  0.00235888  0.37742555  0.15697833     0.73900
C2083       C  0.55619247  0.32851117  0.16899667    -0.07400
C2084       C  0.93065763  0.29087166  0.10117935    -0.06900
N2085       N  0.03167734  0.40880416  0.08642561    -0.26500
N2086       N  0.94356351  0.28817598  0.15229063    -0.47200
H2087       H  0.55934654  0.26705585  0.10840329     0.06400
C2088       C  0.55259203  0.46533097  0.14411009    -0.07400
Cl2089     Cl  0.99797872  0.37443299  0.12234500    -0.50400
C2090       C  0.93344053  0.45621879  0.16782250     0.42200
H2091       H  0.55402710  0.39310513  0.06250379     0.06400
N2092       N  0.55446438  0.42665666  0.16827743    -0.47100
C2093       C  0.89555155  0.03720589  0.19097653    -0.13800
C2094       C  0.90527367  0.03366455  0.21006181     0.08400
C2095       C  0.92235757  0.00341464  0.21560938    -0.13800
C2096       C  0.93677106  0.47964405  0.20094891    -0.13800
C2097       C  0.92386080  0.48207370  0.18245192     0.08400
C2098       C  0.90339483  0.51040325  0.17783292    -0.13800
H2099       H  0.88190712  0.06005193  0.18643576     0.12400
H2100       H  0.93008237  0.00009225  0.23024848     0.12400
H2101       H  0.95285476  0.45823827  0.20485486     0.12400
H2102       H  0.89304602  0.51269752  0.16369452     0.12400
C2103       C  0.89803707  0.21336214  0.19071591    -0.13800
C2104       C  0.90717255  0.21629858  0.20993723     0.08400
C2105       C  0.92342822  0.24672740  0.21599977    -0.13800
C2106       C  0.93052472  0.27358783  0.20315016    -0.13800
C2107       C  0.92206324  0.27032274  0.18384765     0.08400
C2108       C  0.90571879  0.23998124  0.17775905    -0.13800
H2109       H  0.88511707  0.19037337  0.18573151     0.12400
H2110       H  0.93085770  0.24956273  0.23072094     0.12400
H2111       H  0.94354748  0.29635229  0.20828946     0.12400
H2112       H  0.89900888  0.23681949  0.16294121     0.12400
C2113       C  0.62351580  0.99990696  0.19704729    -0.13800
C2114       C  0.60883321  0.03329983  0.19759264     0.08400
C2115       C  0.58332837  0.04078777  0.18477203    -0.13800
C2116       C  0.56752621  0.51786039  0.17529272    -0.13800
C2117       C  0.58074898  0.48390827  0.17557058     0.08400
C2118       C  0.60535272  0.47588320  0.18884329    -0.13800
H2119       H  0.64346150  0.99351273  0.20663774     0.12400
H2120       H  0.57126314  0.06605105  0.18499428     0.12400
H2121       H  0.54821816  0.52474584  0.16538212     0.12400
H2122       H  0.61594305  0.44990248  0.18929355     0.12400
C2123       C  0.62180585  0.24708173  0.19788218    -0.13800
C2124       C  0.60765103  0.21343760  0.19779001     0.08400
C2125       C  0.58187128  0.20636159  0.18514613    -0.13800
C2126       C  0.56976137  0.23253280  0.17329813    -0.13800
C2127       C  0.58256231  0.26662815  0.17418823     0.08400
C2128       C  0.60886830  0.27370966  0.18644498    -0.13800
H2129       H  0.64196479  0.25305581  0.20740356     0.12400
H2130       H  0.57031151  0.18085121  0.18490456     0.12400
H2131       H  0.54942077  0.22635104  0.16394653     0.12400
H2132       H  0.61929611  0.29972528  0.18717923     0.12400
C2133       C  0.61738163  0.02429219  0.81892918    -0.13800
C2134       C  0.58512548  0.02013799  0.82591950     0.08400
C2135       C  0.56744089  0.98979680  0.82108805    -0.13800
C2136       C  0.58095936  0.46086032  0.81027846    -0.13800
C2137       C  0.61302600  0.46428895  0.80314709     0.08400
C2138       C  0.63163967  0.99820256  0.80741777    -0.13800
H2139       H  0.63157139  0.04731409  0.82249875     0.12400
H2140       H  0.54241883  0.98589396  0.82610956     0.12400
H2141       H  0.56613595  0.43833194  0.80656835     0.12400
H2142       H  0.65642493  0.00175138  0.80195971     0.12400
C2143       C  0.56072730  0.26819099  0.82162226    -0.13800
C2144       C  0.57667954  0.23659713  0.82622318     0.08400
C2145       C  0.60808457  0.22999114  0.81849030    -0.13800
C2146       C  0.62304891  0.25458585  0.80636219    -0.13800
C2147       C  0.60679557  0.28605885  0.80196998     0.08400
C2148       C  0.57565585  0.29258907  0.80975039    -0.13800
H2149       H  0.02584344  0.27252297  0.82322640     0.12400
H2150       H  0.62089788  0.20589550  0.82172863     0.12400
H2151       H  0.64702138  0.24898424  0.80022932     0.12400
H2152       H  0.04999182  0.31581232  0.80233558     0.12400
C2153       C  0.93057039  0.99112035  0.81785262    -0.13800
C2154       C  0.91100342  0.01738604  0.82628521     0.08400
C2155       C  0.88233607  0.51864178  0.81909386    -0.13800
C2156       C  0.86882004  0.49362468  0.80667780    -0.13800
C2157       C  0.88859815  0.46659057  0.79921928     0.08400
C2158       C  0.91683647  0.96619754  0.80580608    -0.13800
H2159       H  0.95673625  0.98950683  0.82063078     0.12400
H2160       H  0.86656236  0.53863303  0.82516007     0.12400
H2161       H  0.84289219  0.49492754  0.80314844     0.12400
H2162       H  0.93251943  0.94611360  0.79972354     0.12400
C2163       C  0.87944885  0.22807284  0.81653093    -0.13800
C2164       C  0.91048096  0.23185220  0.82501798     0.08400
C2165       C  0.92939752  0.26174231  0.82069908    -0.13800
C2166       C  0.91739470  0.28765386  0.80863096    -0.13800
C2167       C  0.88598651  0.28465017  0.80063215     0.08400
C2168       C  0.86724840  0.25437052  0.80445403    -0.13800
H2169       H  0.86443239  0.20533261  0.81952679     0.12400
H2170       H  0.95364272  0.26535277  0.82679189     0.12400
H2171       H  0.93266577  0.31018882  0.80553743     0.12400
H2172       H  0.84312683  0.25123873  0.79813767     0.12400
C2173       C  0.63836668  0.30825972  0.04827942    -0.13800
C2174       C  0.65530957  0.27716235  0.05184448     0.08400
C2175       C  0.64415788  0.25459523  0.06628525    -0.13800
C2176       C  0.61548200  0.26278184  0.07666182    -0.13800
C2177       C  0.59778620  0.29341214  0.07249699     0.08400
C2178       C  0.60989880  0.31626242  0.05844303    -0.13800
H2179       H  0.64666159  0.32582237  0.03713762     0.12400
H2180       H  0.65699452  0.23031101  0.06905078     0.12400
H2181       H  0.60664221  0.24477240  0.08742039     0.12400
H2182       H  0.59692973  0.34011452  0.05493338     0.12400
C2183       C  0.84027235  0.25647837  0.06517465    -0.13800
C2184       C  0.82792329  0.28131955  0.05226838     0.08400
C2185       C  0.84251924  0.31427757  0.05114220    -0.13800
C2186       C  0.86995774  0.32199108  0.06212371    -0.13800
C2187       C  0.88330871  0.29707444  0.07463940     0.08400
C2188       C  0.86785892  0.26440028  0.07642967    -0.13800
H2189       H  0.82925870  0.23075112  0.06603284     0.12400
H2190       H  0.83331973  0.33363249  0.04122761     0.12400
H2191       H  0.88139770  0.34729398  0.06033801     0.12400
H2192       H  0.87784011  0.24468771  0.08584568     0.12400
C2193       C  0.65497472  0.20388288  0.94897359    -0.13800
C2194       C  0.65557216  0.23768270  0.95648050     0.08400
C2195       C  0.62830357  0.25987497  0.95317531    -0.13800
C2196       C  0.60106979  0.24830161  0.94237482    -0.13800
C2197       C  0.60065739  0.21423161  0.93489373     0.08400
C2198       C  0.62803382  0.19235431  0.93843258    -0.13800
H2199       H  0.67504525  0.18594074  0.95179065     0.12400
H2200       H  0.62788342  0.28586367  0.95928220     0.12400
H2201       H  0.58058308  0.26583065  0.93987946     0.12400
H2202       H  0.62867851  0.16578267  0.93311869     0.12400
C2203       C  0.83443229  0.20290880  0.95465764    -0.13800
C2204       C  0.82875204  0.23883504  0.95615016     0.08400
C2205       C  0.85127031  0.26202463  0.94740717    -0.13800
C2206       C  0.87871591  0.24910301  0.93704177    -0.13800
C2207       C  0.88417562  0.21285344  0.93559876     0.08400
C2208       C  0.86175576  0.19018628  0.94474804    -0.13800
H2209       H  0.81817969  0.18460056  0.96179912     0.12400
H2210       H  0.84782416  0.28996857  0.94882725     0.12400
H2211       H  0.89527341  0.26724062  0.93003930     0.12400
H2212       H  0.86532600  0.16215353  0.94431794     0.12400
C2213       C  0.64153570  0.49727576  0.06499547    -0.13800
C2214       C  0.65784875  0.47442347  0.05243889     0.08400
C2215       C  0.64643365  0.44019595  0.05030970    -0.13800
C2216       C  0.61828246  0.42918432  0.05996179    -0.13800
C2217       C  0.60083110  0.45223883  0.07192179     0.08400
C2218       C  0.61315471  0.48615252  0.07478120    -0.13800
H2219       H  0.65007931  0.52390444  0.06666010     0.12400
H2220       H  0.65881197  0.42230656  0.04066936     0.12400
H2221       H  0.60993184  0.40269612  0.05771184     0.12400
H2222       H  0.60019114  0.50435662  0.08395690     0.12400
C2223       C  0.83776798  0.44368134  0.05650806    -0.13800
C2224       C  0.83061231  0.47923303  0.05453672     0.08400
C2225       C  0.85007375  0.50399968  0.06415042    -0.13800
C2226       C  0.87777304  0.49316943  0.07458834    -0.13800
C2227       C  0.88600902  0.45754898  0.07545017     0.08400
C2228       C  0.86499567  0.43298777  0.06693666    -0.13800
H2229       H  0.82287501  0.42421892  0.04935957     0.12400
H2230       H  0.84470908  0.53161603  0.06281231     0.12400
H2231       H  0.89362353  0.51256841  0.08103883     0.12400
H2232       H  0.87023014  0.40535406  0.06779579     0.12400
C2233       C  0.61493504  0.00639730  0.93557201    -0.13800
C2234       C  0.60890539  0.04239736  0.93357585     0.08400
C2235       C  0.63093837  0.06609020  0.94216026    -0.13800
C2236       C  0.65825361  0.05449759  0.95227707    -0.13800
C2237       C  0.66421914  0.01878555  0.95450062     0.08400
C2238       C  0.64235281  0.99465337  0.94613002    -0.13800
H2239       H  0.59870685  0.98755077  0.92896235     0.12400
H2240       H  0.62692757  0.09401628  0.94127283     0.12400
H2241       H  0.67405314  0.07349501  0.95914059     0.12400
H2242       H  0.63451612  0.46554379  0.95617051     0.12400
C2243       C  0.86219972  0.99461055  0.95438745    -0.13800
C2244       C  0.83659367  0.01821929  0.95892644     0.08400
C2245       C  0.83936199  0.05304567  0.95329681    -0.13800
C2246       C  0.86681734  0.06423441  0.94312525    -0.13800
C2247       C  0.89223838  0.04085617  0.93799865     0.08400
C2248       C  0.88989113  0.00583471  0.94382285    -0.13800
H2249       H  0.86080890  0.96774319  0.95916465     0.12400
H2250       H  0.82050432  0.07183766  0.95720552     0.12400
H2251       H  0.86793864  0.09153852  0.93909075     0.12400
H2252       H  0.90895894  0.98727119  0.93999740     0.12400
C2253       C  0.67962251  0.02012828  0.69577754    -0.13800
C2254       C  0.66526583  0.01432455  0.67785721     0.08400
C2255       C  0.64153961  0.48577353  0.67418670    -0.13800
C2256       C  0.63757145  0.46080605  0.68856653    -0.13800
C2257       C  0.65356500  0.46486774  0.70616245     0.08400
C2258       C  0.67785195  0.99474213  0.70995858    -0.13800
H2259       H  0.69281643  0.04408603  0.69877943     0.12400
H2260       H  0.62934820  0.48207363  0.66064300     0.12400
H2261       H  0.62213544  0.43822420  0.68598086     0.12400
H2262       H  0.68941372  0.99971784  0.72357114     0.12400
C2263       C  0.63768858  0.28701371  0.68815420    -0.13800
C2264       C  0.65223167  0.28425697  0.70621007     0.08400
C2265       C  0.67186382  0.25511076  0.71042321    -0.13800
C2266       C  0.67647836  0.22881965  0.69692759    -0.13800
C2267       C  0.66186541  0.23146743  0.67887234     0.08400
C2268       C  0.64277243  0.26091992  0.67449986    -0.13800
H2269       H  0.62248083  0.30937249  0.68466707     0.12400
H2270       H  0.68364574  0.25279991  0.72418443     0.12400
H2271       H  0.69216618  0.20689988  0.70049247     0.12400
H2272       H  0.63172529  0.26360964  0.66055840     0.12400
C2273       C  0.82434018  0.98299374  0.67674305    -0.13800
C2274       C  0.80676253  0.01370263  0.68090095     0.08400
C2275       C  0.79449453  0.01877942  0.69947507    -0.13800
C2276       C  0.80664728  0.49565046  0.71200586    -0.13800
C2277       C  0.82363573  0.46491857  0.70718213     0.08400
C2278       C  0.83432005  0.46014190  0.68826594    -0.13800
H2279       H  0.83401832  0.97845963  0.66255119     0.12400
H2280       H  0.78047354  0.04198623  0.70304960     0.12400
H2281       H  0.79811301  0.49985453  0.72647169     0.12400
H2282       H  0.84777644  0.43678206  0.68426899     0.12400
C2283       C  0.82727146  0.26099827  0.67680498    -0.13800
C2284       C  0.80989221  0.23081422  0.68215944     0.08400
C2285       C  0.79847760  0.22764203  0.70102067    -0.13800
C2286       C  0.80418437  0.25427192  0.71422707    -0.13800
C2287       C  0.82177696  0.28433054  0.70890593     0.08400
C2288       C  0.83346191  0.28738234  0.69011174    -0.13800
H2289       H  0.83613045  0.26409119  0.66232205     0.12400
H2290       H  0.78442240  0.20503934  0.70549701     0.12400
H2291       H  0.79490635  0.25146853  0.72864152     0.12400
H2292       H  0.84738519  0.31020321  0.68577307     0.12400
C2293       C  0.68228299  0.47926325  0.30216392    -0.13800
C2294       C  0.67213422  0.48218406  0.32125597     0.08400
C2295       C  0.65168953  0.01356434  0.32623470    -0.13800
C2296       C  0.64303661  0.03805019  0.31233538    -0.13800
C2297       C  0.65417842  0.03416554  0.29346873     0.08400
C2298       C  0.67535258  0.50599349  0.28921899    -0.13800
H2299       H  0.69609869  0.45668909  0.29732594     0.12400
H2300       H  0.64318137  0.01733858  0.34073566     0.12400
H2301       H  0.62799486  0.06030771  0.31632334     0.12400
H2302       H  0.68360856  0.50344147  0.27458536     0.12400
C2303       C  0.67864997  0.27188542  0.29979438    -0.13800
C2304       C  0.66955526  0.26859769  0.31905118     0.08400
C2305       C  0.65172515  0.23900479  0.32489608    -0.13800
C2306       C  0.64326060  0.21307337  0.31174729    -0.13800
C2307       C  0.65300471  0.21601275  0.29259101     0.08400
C2308       C  0.67066663  0.24571704  0.28673425    -0.13800
H2309       H  0.69283464  0.29408133  0.29487509     0.12400
H2310       H  0.64448369  0.23588389  0.33966955     0.12400
H2311       H  0.62942729  0.19049716  0.31653980     0.12400
H2312       H  0.67869012  0.24838681  0.27206567     0.12400
C2313       C  0.85830513  0.47589049  0.31895693    -0.13800
C2314       C  0.82986386  0.48205525  0.32988965     0.08400
C2315       C  0.81505285  0.01566236  0.32908784    -0.13800
C2316       C  0.82587710  0.04101386  0.31618105    -0.13800
C2317       C  0.85394722  0.03513799  0.30484709     0.08400
C2318       C  0.87086198  0.00316642  0.30661750    -0.13800
H2319       H  0.87200312  0.45178635  0.32063653     0.12400
H2320       H  0.79317024  0.02087243  0.33752288     0.12400
H2321       H  0.81212876  0.06517283  0.31488878     0.12400
H2322       H  0.89258032  0.99806391  0.29802236     0.12400
C2323       C  0.85903895  0.27320790  0.31803540    -0.13800
C2324       C  0.83245207  0.26583417  0.33022411     0.08400
C2325       C  0.81740984  0.23283514  0.32942263    -0.13800
C2326       C  0.82832350  0.20781886  0.31642407    -0.13800
C2327       C  0.85521648  0.21479635  0.30436705     0.08400
C2328       C  0.87068336  0.24766295  0.30537897    -0.13800
H2329       H  0.87086708  0.29856855  0.31841496     0.12400
H2330       H  0.79652901  0.22666901  0.33848591     0.12400
H2331       H  0.81556590  0.18299550  0.31566835     0.12400
H2332       H  0.89146647  0.25363426  0.29620286     0.12400
C2333       C  0.58857767  0.24783658  0.56243963    -0.13800
C2334       C  0.58056828  0.22952361  0.54572938     0.08400
C2335       C  0.59962594  0.20069104  0.54026413    -0.13800
C2336       C  0.62662719  0.19053533  0.55107030    -0.13800
C2337       C  0.63527473  0.20901799  0.56761958     0.08400
C2338       C  0.61585742  0.23762711  0.57335263    -0.13800
H2339       H  0.57399363  0.27016227  0.56684612     0.12400
H2340       H  0.59366857  0.18618157  0.52747729     0.12400
H2341       H  0.64090884  0.16822157  0.54631918     0.12400
H2342       H  0.62188361  0.25221192  0.58608064     0.12400
C2343       C  0.89066413  0.25260610  0.56416650    -0.13800
C2344       C  0.90734398  0.22800817  0.55280996     0.08400
C2345       C  0.89814377  0.19280794  0.55352374    -0.13800
C2346       C  0.87103952  0.18259284  0.56432361    -0.13800
C2347       C  0.85310961  0.20725149  0.57496288     0.08400
C2348       C  0.86374736  0.24215445  0.57541240    -0.13800
H2349       H  0.89755013  0.27993199  0.56364724     0.12400
H2350       H  0.91074250  0.17363505  0.54475549     0.12400
H2351       H  0.86336209  0.15551077  0.56380352     0.12400
H2352       H  0.85016415  0.26155528  0.58349182     0.12400
C2353       C  0.59222371  0.24586189  0.44187133    -0.13800
C2354       C  0.57155054  0.27140822  0.44995301     0.08400
C2355       C  0.57568588  0.30651588  0.44488302    -0.13800
C2356       C  0.60142245  0.31630085  0.43280695    -0.13800
C2357       C  0.62314430  0.29111664  0.42538266     0.08400
C2358       C  0.61779114  0.25567163  0.42944817    -0.13800
H2359       H  0.58930134  0.21863985  0.44574050     0.12400
H2360       H  0.55991455  0.32647981  0.45100655     0.12400
H2361       H  0.60519565  0.34376373  0.42981542     0.12400
H2362       H  0.63457620  0.23595340  0.42405543     0.12400
C2363       C  0.88777859  0.25145934  0.44235093    -0.13800
C2364       C  0.89771133  0.27271644  0.45757816     0.08400
C2365       C  0.87998571  0.30310525  0.46186118    -0.13800
C2366       C  0.85228199  0.31196475  0.45130385    -0.13800
C2367       C  0.84173505  0.29057464  0.43623259     0.08400
C2368       C  0.85987798  0.26037483  0.43168777    -0.13800
H2369       H  0.90121193  0.22774557  0.43901694     0.12400
H2370       H  0.88738482  0.31968152  0.47360467     0.12400
H2371       H  0.83893638  0.33550719  0.45509269     0.12400
H2372       H  0.85223482  0.24343228  0.42017851     0.12400
C2373       C  0.59726974  0.00095929  0.55363411    -0.13800
C2374       C  0.57784833  0.02639074  0.54456128     0.08400
C2375       C  0.58476913  0.06181660  0.54751383    -0.13800
C2376       C  0.61159285  0.07178761  0.55861563    -0.13800
C2377       C  0.63188435  0.04654325  0.56721380     0.08400
C2378       C  0.62403106  0.01101099  0.56506020    -0.13800
H2379       H  0.59224231  0.97346253  0.55144209     0.12400
H2380       H  0.57000739  0.08174350  0.54065550     0.12400
H2381       H  0.61688775  0.09939059  0.56014211     0.12400
H2382       H  0.63947165  0.99111566  0.57140878     0.12400
C2383       C  0.88521564  0.99593983  0.56135652    -0.13800
C2384       C  0.90836027  0.02046855  0.55477810     0.08400
C2385       C  0.90541933  0.05553075  0.56022633    -0.13800
C2386       C  0.87818319  0.06651718  0.57080159    -0.13800
C2387       C  0.85374215  0.04253315  0.57627949     0.08400
C2388       C  0.85811972  0.00690733  0.57229327    -0.13800
H2389       H  0.89531667  0.47147939  0.56583435     0.12400
H2390       H  0.92298596  0.07474280  0.55513982     0.12400
H2391       H  0.87533292  0.09409105  0.57387969     0.12400
H2392       H  0.84701112  0.49324360  0.58395622     0.12400
C2393       C  0.60415899  0.43339014  0.43702173    -0.13800
C2394       C  0.62508439  0.45633550  0.42705553     0.08400
C2395       C  0.61786190  0.49224128  0.42705831    -0.13800
C2396       C  0.59130501  0.50503944  0.43797481    -0.13800
C2397       C  0.57188192  0.48195206  0.44886323     0.08400
C2398       C  0.57802736  0.44605262  0.44787567    -0.13800
H2399       H  0.60863249  0.40552946  0.43700956     0.12400
H2400       H  0.63362953  0.51041377  0.41948879     0.12400
H2401       H  0.58669598  0.53289916  0.43854921     0.12400
H2402       H  0.56314209  0.42787602  0.45604391     0.12400
C2403       C  0.89129157  0.43768610  0.45437293    -0.13800
C2404       C  0.89808231  0.47311373  0.45726286     0.08400
C2405       C  0.87820123  0.49862408  0.44865156    -0.13800
C2406       C  0.85090316  0.48858010  0.43776588    -0.13800
C2407       C  0.84311046  0.45302850  0.43578951     0.08400
C2408       C  0.86392665  0.42771924  0.44381700    -0.13800
H2409       H  0.90653547  0.41779690  0.46090477     0.12400
H2410       H  0.88328047  0.52611739  0.45083311     0.12400
H2411       H  0.83503385  0.50844306  0.43174013     0.12400
H2412       H  0.85863192  0.40012124  0.44228351     0.12400
N2413       N  0.93825873  0.00233101  0.50493676    -0.37000
N2414       N  0.48625838  0.00070129  0.46863488    -0.57600
N2415       N  0.53879829  0.50384392  0.49692506    -0.37000
N2416       N  0.49030909  0.51008588  0.52747393    -0.57600
C2417       C  0.91842299  0.00709628  0.48974481     0.26500
C2418       C  0.91975457  0.49461379  0.52071558     0.26500
C2419       C  0.55638868  0.01018239  0.48030021     0.26500
C2420       C  0.55846783  0.51421703  0.51141920     0.26500
C2421       C  0.95733352  0.99027684  0.46391904     0.35200
C2422       C  0.51233763  0.99291597  0.45736075     0.35200
C2423       C  0.96374400  0.51452327  0.54281595     0.35200
C2424       C  0.51781131  0.50913686  0.53820840     0.35200
C2425       C  0.88849673  0.02088717  0.49567516    -0.22300
C2426       C  0.88818337  0.48250756  0.51712700    -0.22300
C2427       C  0.58796060  0.02186505  0.48433522    -0.22300
C2428       C  0.58935362  0.52269525  0.50416846    -0.22300
C2429       C  0.96494261  0.97600243  0.44630291    -0.23400
C2430       C  0.50160726  0.97809085  0.44044556    -0.23400
C2431       C  0.97465861  0.53162269  0.55901639    -0.23400
C2432       C  0.50932695  0.50660856  0.55732206    -0.23400
C2433       C  0.92510276  0.99546625  0.47103633    -0.18700
C2434       C  0.93038932  0.50787023  0.53846334    -0.18700
C2435       C  0.55013339  0.51430754  0.53112644    -0.18700
C2436       C  0.54571440  0.99909729  0.46206248    -0.18700
H2437       H  0.86730254  0.02678991  0.48692761     0.14200
H2438       H  0.86816739  0.47936438  0.52722220     0.14200
H2439       H  0.60804406  0.02617815  0.47443440     0.14200
H2440       H  0.61080633  0.53114142  0.51202904     0.14200
H2441       H  0.94805601  0.96661569  0.43557529     0.12500
H2442       H  0.51651923  0.96948697  0.42850686     0.12500
H2443       H  0.95984400  0.54232383  0.57048348     0.12500
H2444       H  0.52579177  0.50621353  0.56940492     0.12500
H2445       H  0.96007104  0.98814052  0.50486252     0.25700
H2446       H  0.51590302  0.49204872  0.49827998     0.25700
N2447       N  0.53857187  0.75485321  0.50129771    -0.37000
N2448       N  0.98807016  0.73656808  0.53220414    -0.57600
N2449       N  0.93576101  0.75150292  0.50542529    -0.37000
N2450       N  0.98333583  0.75791812  0.47435688    -0.57600
C2451       C  0.55823928  0.75563256  0.51680856     0.26500
C2452       C  0.55671062  0.76642596  0.48634934     0.26500
C2453       C  0.91812332  0.73859055  0.52023654     0.26500
C2454       C  0.91569717  0.75164509  0.49010527     0.26500
C2455       C  0.51714208  0.73890739  0.54156298     0.35200
C2456       C  0.96252008  0.73763225  0.54457124     0.35200
C2457       C  0.51269066  0.76742881  0.46158533     0.35200
C2458       C  0.95621741  0.76978701  0.46534433     0.35200
C2459       C  0.58932431  0.76738329  0.51165534    -0.22300
C2460       C  0.58836366  0.77428794  0.49246196    -0.22300
C2461       C  0.88647127  0.73054117  0.51421649    -0.22300
C2462       C  0.88490090  0.73899009  0.49522822    -0.22300
C2463       C  0.50811373  0.72329839  0.55862233    -0.23400
C2464       C  0.97393462  0.73753348  0.56313499    -0.23400
C2465       C  0.50183292  0.76884741  0.44290848    -0.23400
C2466       C  0.96487822  0.78535839  0.44822001    -0.23400
C2467       C  0.54980793  0.74332284  0.53517072    -0.18700
C2468       C  0.54604327  0.76881520  0.46719106    -0.18700
C2469       C  0.92366025  0.76526652  0.47197867    -0.18700
C2470       C  0.92910321  0.73581723  0.53928041    -0.18700
H2471       H  0.61058075  0.77038536  0.52077634     0.14200
H2472       H  0.60882728  0.78371199  0.48395598     0.14200
H2473       H  0.86638050  0.72013393  0.52267946     0.14200
H2474       H  0.86344200  0.73635451  0.48623504     0.14200
H2475       H  0.52410549  0.71222517  0.56934520     0.12500
H2476       H  0.95940840  0.73759799  0.57610994     0.12500
H2477       H  0.51674803  0.76939462  0.43008524     0.12500
H2478       H  0.94861403  0.79685496  0.43776695     0.12500
H2479       H  0.51560280  0.74305550  0.50054138     0.25700
H2480       H  0.95860028  0.76362860  0.50621983     0.25700
C2481       C  0.81274133  0.94593115  0.42862117     0.42000
N2482       N  0.77476459  0.93777329  0.40789161     0.00900
C2483       C  0.67309893  0.79268997  0.40352041    -0.07000
H2484       H  0.80654206  0.76919123  0.40075959     0.06400
C2485       C  0.80421987  0.82761371  0.33719545    -0.07300
Co2486     Co  0.73495491  0.87482564  0.41778577     0.74200
N2487       N  0.77208947  0.81158566  0.40531556    -0.26500
Co2488     Co  0.73935862  0.81249905  0.38235891     0.74100
C2489       C  0.81407504  0.79230924  0.34293633     0.42100
N2490       N  0.78387560  0.91735979  0.35165876     0.00500
N2491       N  0.77816258  0.81240472  0.36280588     0.00600
N2492       N  0.67180752  0.83566284  0.42562706    -0.47300
H2493       H  0.79587486  0.89799819  0.44599317     0.06400
N2494       N  0.76972673  0.83557289  0.41873175     0.00900
N2495       N  0.70737688  0.81556503  0.35938390     0.00700
C2496       C  0.67561525  0.79951619  0.33651773     0.42300
N2497       N  0.78166462  0.94053087  0.36557022    -0.25900
C2498       C  0.67449604  0.91838200  0.42766304    -0.06900
N2499       N  0.79967489  0.95879600  0.41231003    -0.47100
N2500       N  0.68693285  0.79061098  0.35390914    -0.47300
C2501       C  0.65876915  0.94990611  0.42078723     0.42000
N2502       N  0.69841842  0.83778789  0.41483041     0.00900
N2503       N  0.71062313  0.94262062  0.36146788    -0.26000
N2504       N  0.77118978  0.91213429  0.42024343    -0.26500
N2505       N  0.71299409  0.91932539  0.34762799     0.00500
H2506       H  0.68796347  0.99341495  0.36297972     0.06400
H2507       H  0.69074124  0.84734549  0.31850976     0.06500
N2508       N  0.69984616  0.81332227  0.40164562    -0.26500
N2509       N  0.78176181  0.83780925  0.35021529    -0.26100
N2510       N  0.70221812  0.93994700  0.40404810     0.00900
C2511       C  0.81124167  0.80492832  0.42717624     0.42300
C2512       C  0.80366299  0.96591169  0.36239767    -0.07400
N2513       N  0.71044471  0.84073008  0.34662733    -0.26100
H2514       H  0.80876723  0.84060563  0.32375467     0.06500
N2515       N  0.79243881  0.83248515  0.43199650    -0.47300
H2516       H  0.80451085  0.99041311  0.37007428     0.06400
C2517       C  0.68160997  0.95945354  0.33622606     0.42100
C2518       C  0.79367054  0.91522653  0.43388111    -0.06900
Co2519     Co  0.74225496  0.94107334  0.38479203     0.73800
N2520       N  0.80602685  0.92649197  0.33859878    -0.47100
C2521       C  0.65442604  0.80813133  0.41934938     0.42400
N2522       N  0.67736355  0.96244148  0.40616246    -0.47100
Co2523     Co  0.74743395  0.87877980  0.34872630     0.73900
C2524       C  0.69090113  0.83322801  0.33185228    -0.07400
C2525       C  0.79780538  0.79069225  0.40942013    -0.06900
N2526       N  0.70062006  0.91412179  0.41643019    -0.26500
N2527       N  0.79657440  0.78477524  0.35880137    -0.47200
H2528       H  0.66721384  0.77036910  0.39471612     0.06400
C2529       C  0.69095862  0.96870084  0.35568511    -0.07400
Cl2530     Cl  0.74108839  0.87685422  0.38327486    -0.50400
C2531       C  0.81975214  0.95697017  0.34437546     0.42200
H2532       H  0.66798053  0.90179596  0.43956461     0.06400
N2533       N  0.69637894  0.92863431  0.33226441    -0.47100
C2534       C  0.81835768  0.55846311  0.58059569     0.42000
N2535       N  0.77462174  0.56486731  0.59760880     0.00900
C2536       C  0.67409090  0.71084918  0.59788860    -0.07000
H2537       H  0.80565254  0.73380476  0.61039762     0.06400
C2538       C  0.78600403  0.66964604  0.67240095    -0.07300
Co2539     Co  0.73878310  0.62958669  0.58593007     0.74200
N2540       N  0.77300335  0.69150815  0.60249349    -0.26500
Co2541     Co  0.73519442  0.68979562  0.62272675     0.74100
C2542       C  0.79742232  0.70534244  0.66890060     0.42100
N2543       N  0.76918795  0.58239231  0.65403093     0.00500
N2544       N  0.76899051  0.68753080  0.64496178     0.00600
N2545       N  0.67859657  0.67065840  0.57440452    -0.47300
H2546       H  0.80632256  0.60720527  0.56276507     0.06400
N2547       N  0.77430670  0.66800385  0.58876696     0.00900
N2548       N  0.69815621  0.68683836  0.64321858     0.00700
C2549       C  0.66675219  0.70469515  0.66609709     0.42300
N2550       N  0.77034771  0.55928570  0.64006321    -0.25900
C2551       C  0.67965490  0.58819737  0.57078059    -0.06900
N2552       N  0.80058485  0.54406154  0.59502441    -0.47100
N2553       N  0.68022216  0.71365454  0.64915743    -0.47300
C2554       C  0.66169901  0.55681853  0.57600256     0.42000
N2555       N  0.70256447  0.66746984  0.58688877     0.00900
N2556       N  0.69912640  0.55914228  0.63848949    -0.26000
N2557       N  0.77463824  0.59150159  0.58570653    -0.26500
N2558       N  0.69807419  0.58262244  0.65226434     0.00500
H2559       H  0.67928781  0.50720592  0.63647206     0.06400
H2560       H  0.67653918  0.65472047  0.68319754     0.06500
N2561       N  0.70068026  0.69053778  0.60079821    -0.26500
N2562       N  0.76843137  0.66102232  0.65699369    -0.26100
N2563       N  0.70159004  0.56440470  0.59565133     0.00900
C2564       C  0.81771778  0.69864865  0.58458972     0.42300
C2565       C  0.79046888  0.53310587  0.64520636    -0.07400
N2566       N  0.69742146  0.66042248  0.65527262    -0.26100
H2567       H  0.78601532  0.65509074  0.68560393     0.06500
N2568       N  0.80064709  0.67129176  0.57781599    -0.47300
H2569       H  0.79249204  0.50835771  0.63783766     0.06400
C2570       C  0.66625211  0.54151676  0.66226880     0.42100
C2571       C  0.80085567  0.58944534  0.57431834    -0.06900
Co2572     Co  0.73637621  0.56095446  0.61784640     0.73800
N2573       N  0.78711225  0.57286053  0.66883500    -0.47100
C2574       C  0.65949258  0.69727899  0.58032923     0.42400
N2575       N  0.67669384  0.54302235  0.59154520    -0.47100
Co2576     Co  0.73332988  0.62152473  0.65471438     0.73900
C2577       C  0.67765503  0.66888795  0.66987558    -0.07400
C2578       C  0.79940001  0.71260886  0.60088325    -0.06900
N2579       N  0.70345244  0.59095239  0.58371450    -0.26500
N2580       N  0.78593030  0.71447997  0.65156542    -0.47200
H2581       H  0.66585454  0.73184261  0.60706839     0.06400
C2582       C  0.67926421  0.53250208  0.64335951    -0.13400
Cl2583     Cl  0.73593472  0.62541444  0.62035338    -0.50400
C2584       C  0.80135414  0.54192981  0.66448541     0.42200
H2585       H  0.67568983  0.60590614  0.55901070     0.06400
N2586       N  0.67869369  0.57320122  0.66649147    -0.47100
N2587       N  0.69625524  0.99577211  0.00321053    -0.37000
N2588       N  0.74557685  0.50401938  0.97683621    -0.57600
N2589       N  0.79680048  0.99823885  0.00615312    -0.37000
N2590       N  0.74412163  0.99286181  0.03428847    -0.57600
C2591       C  0.67613844  0.50548870  0.99074601     0.26500
C2592       C  0.67607497  0.99681677  0.01859452     0.26500
C2593       C  0.81489224  0.50758238  0.99163399     0.26500
C2594       C  0.81392195  0.00166608  0.02256138     0.26500
C2595       C  0.71898527  0.50319650  0.96518024     0.35200
C2596       C  0.77281329  0.50437749  0.96556144     0.35200
C2597       C  0.71687152  0.98281491  0.04392874     0.35200
C2598       C  0.76993916  0.98463243  0.04549841     0.35200
C2599       C  0.64547185  0.51609454  0.99747164    -0.22300
C2600       C  0.64463891  0.00648394  0.01302477    -0.22300
C2601       C  0.84584634  0.51670680  0.99839225    -0.22300
C2602       C  0.84528021  0.01409158  0.01860052    -0.22300
C2603       C  0.72938203  0.50320811  0.94636005    -0.23400
C2604       C  0.76335362  0.50381730  0.94658960    -0.23400
C2605       C  0.72530515  0.96931133  0.06156705    -0.23400
C2606       C  0.75900670  0.97047382  0.06256708    -0.23400
C2607       C  0.68553790  0.50556611  0.97127206    -0.18700
C2608       C  0.68437916  0.98644350  0.03726464    -0.18700
C2609       C  0.80324997  0.99044541  0.04072376    -0.18700
C2610       C  0.80596966  0.50751418  0.97205804    -0.18700
H2611       H  0.62501721  0.52619580  0.98929876     0.14200
H2612       H  0.62286127  0.00903708  0.02187797     0.14200
H2613       H  0.86690305  0.52572870  0.99026145     0.14200
H2614       H  0.86503821  0.01898874  0.02853860     0.14200
H2615       H  0.71406877  0.50337089  0.93377588     0.12500
H2616       H  0.77923740  0.50439005  0.93416483     0.12500
H2617       H  0.70890570  0.95956356  0.07254985     0.12500
H2618       H  0.77374284  0.96184610  0.07448962     0.12500
H2619       H  0.71986437  0.98546568  0.00295233     0.25700
H2620       H  0.77445528  0.98542613  0.00461723     0.25700
N2621       N  0.69237274  0.75422748  0.00361056    -0.37000
N2622       N  0.74243517  0.75396511  0.03362836    -0.57600
N2623       N  0.79254106  0.75389196  0.00406055    -0.37000
N2624       N  0.74252384  0.75010273  0.97460822    -0.57600
C2625       C  0.67439341  0.74711280  0.01940264     0.26500
C2626       C  0.67389086  0.74490229  0.98840784     0.26500
C2627       C  0.81005349  0.74691769  0.01998759     0.26500
C2628       C  0.81044352  0.74194037  0.98908261     0.26500
C2629       C  0.71557524  0.76197564  0.04413651     0.35200
C2630       C  0.76873071  0.76254396  0.04437242     0.35200
C2631       C  0.71598482  0.75543990  0.96331297     0.35200
C2632       C  0.76972611  0.75415497  0.96357161     0.35200
C2633       C  0.64419169  0.73322835  0.01425771    -0.22300
C2634       C  0.64402812  0.73135835  0.99473068    -0.22300
C2635       C  0.83921339  0.73032364  0.01521761    -0.22300
C2636       C  0.83920783  0.72651216  0.99575299    -0.22300
C2637       C  0.72476998  0.77464739  0.06183950    -0.23400
C2638       C  0.75862605  0.77514817  0.06195717    -0.23400
C2639       C  0.72638570  0.76331665  0.94498473    -0.23400
C2640       C  0.76038581  0.76259954  0.94515405    -0.23400
C2641       C  0.68293321  0.75673507  0.03812545    -0.18700
C2642       C  0.68274177  0.74969902  0.96901735    -0.18700
C2643       C  0.80244277  0.74660735  0.96957268    -0.18700
C2644       C  0.80163147  0.75782995  0.03855660    -0.18700
H2645       H  0.62418830  0.72551636  0.02359863     0.14200
H2646       H  0.62393004  0.72141594  0.98623643     0.14200
H2647       H  0.85839097  0.72175661  0.02482051     0.14200
H2648       H  0.85850021  0.71404130  0.98751345     0.14200
H2649       H  0.70877400  0.78261241  0.07344092     0.12500
H2650       H  0.77397534  0.78360433  0.07365080     0.12500
H2651       H  0.71107101  0.76830178  0.93269770     0.12500
H2652       H  0.77636555  0.76697004  0.93300006     0.12500
H2653       H  0.71409800  0.76865253  0.00326951     0.25700
H2654       H  0.77170685  0.76974398  0.00336098     0.25700
C2655       C  0.91383902  0.54943254  0.92212085     0.42000
N2656       N  0.93494947  0.58274141  0.90070057     0.00900
C2657       C  0.58022352  0.57824945  0.84551393    -0.07000
H2658       H  0.60612019  0.60415195  0.91130666     0.06400
C2659       C  0.54236363  0.71271130  0.91575965    -0.07300
Co2660     Co  0.99804533  0.55988660  0.88321332     0.74200
N2661       N  0.55926763  0.59031421  0.90035372    -0.26500
Co2662     Co  0.55687425  0.62795342  0.87958200     0.74100
C2663       C  0.57629709  0.70159940  0.92083805     0.42100
N2664       N  0.95128417  0.68391239  0.90408840     0.00500
N2665       N  0.55536099  0.66536772  0.90082213     0.00600
N2666       N  0.54319503  0.53489547  0.84957988    -0.47300
H2667       H  0.95946108  0.51275866  0.92097899     0.06400
N2668       N  0.53892642  0.56373210  0.90269650     0.00900
N2669       N  0.55396100  0.66925323  0.85981612     0.00700
C2670       C  0.56575770  0.71253210  0.84133338     0.42300
N2671       N  0.93076366  0.65761725  0.90135934    -0.25900
C2672       C  0.95921358  0.53103646  0.84981345    -0.06900
N2673       N  0.90874487  0.57766683  0.91137143    -0.47100
N2674       N  0.57666213  0.68087794  0.84755813    -0.47300
C2675       C  0.93057168  0.54017473  0.83863534     0.42000
N2676       N  0.53748590  0.56100113  0.86134320     0.00900
N2677       N  0.93429373  0.66205532  0.86014116    -0.26000
N2678       N  0.95880664  0.55979920  0.90358367    -0.26500
N2679       N  0.95459981  0.68845725  0.86308422     0.00500
H2680       H  0.89215038  0.65676065  0.84147887     0.06400
H2681       H  0.52039356  0.74335091  0.85168323     0.06500
N2682       N  0.55822026  0.58735429  0.85920381    -0.26500
N2683       N  0.53119277  0.68814739  0.90333703    -0.26100
N2684       N  0.93903695  0.58034987  0.85958321     0.00900
C2685       C  0.57975577  0.55505524  0.92212764     0.42300
C2686       C  0.90434124  0.66138803  0.91238771    -0.07400
N2687       N  0.53006657  0.69223869  0.86238271    -0.26100
H2688       H  0.53045810  0.73745701  0.91866265     0.06500
N2689       N  0.55099217  0.54089736  0.91539864    -0.47300
H2690       H  0.88315626  0.64431103  0.91204347     0.06400
C2691       C  0.92409496  0.70689918  0.84038111     0.42100
C2692       C  0.94740745  0.53681141  0.91688785    -0.06900
Co2693     Co  0.93450887  0.62065305  0.87997153     0.73800
N2694       N  0.93842151  0.70751181  0.91607245    -0.47100
C2695       C  0.56966990  0.54327153  0.83905291     0.42400
N2696       N  0.91856444  0.57082679  0.84570286    -0.47100
Co2697     Co  0.99025110  0.68886880  0.88394734     0.73900
C2698       C  0.53508755  0.71979316  0.85126142    -0.07400
C2699       C  0.58470127  0.58742212  0.91195973    -0.06900
N2700       N  0.96237009  0.55684076  0.86235422    -0.26500
N2701       N  0.58172015  0.67218098  0.91099812    -0.47200
H2702       H  0.60205683  0.59287936  0.84165851     0.06400
C2703       C  0.91335626  0.67154967  0.84611588    -0.07400
Cl2704     Cl  0.99402578  0.62443264  0.88167301    -0.50400
C2705       C  0.90866695  0.69457090  0.92195543     0.42200
H2706       H  0.97415091  0.50762675  0.84949420     0.06400
N2707       N  0.94955890  0.71512544  0.85161186    -0.47100
N2708       N  0.63064167  0.87721559  0.78496429    -0.37000
N2709       N  0.64465874  0.93042963  0.75645241    -0.57600
N2710       N  0.65266268  0.87471611  0.72848973    -0.37000
N2711       N  0.64315452  0.82158332  0.75767186    -0.57600
C2712       C  0.63082446  0.90628359  0.79598605     0.26500
C2713       C  0.63090203  0.84913876  0.79672402     0.26500
C2714       C  0.66554411  0.90250970  0.71919653     0.26500
C2715       C  0.66422866  0.84570683  0.71972238     0.26500
C2716       C  0.63094729  0.95079663  0.77008660     0.35200
C2717       C  0.64352541  0.94908880  0.74011927     0.35200
C2718       C  0.63020641  0.80234994  0.77199868     0.35200
C2719       C  0.64156561  0.80149261  0.74187155     0.35200
C2720       C  0.63148370  0.89656336  0.81501224    -0.22300
C2721       C  0.63155890  0.86054297  0.81547663    -0.22300
C2722       C  0.68599382  0.89104877  0.70458598    -0.22300
C2723       C  0.68505390  0.85508934  0.70487385    -0.22300
C2724       C  0.62155617  0.98267918  0.76244044    -0.23400
C2725       C  0.62937124  0.98153016  0.74344579    -0.23400
C2726       C  0.62082511  0.76973105  0.76530214    -0.23400
C2727       C  0.62795396  0.76923365  0.74619675    -0.23400
C2728       C  0.62684262  0.94108715  0.78936680    -0.18700
C2729       C  0.62681905  0.81377053  0.79105586    -0.18700
C2730       C  0.65421787  0.81123549  0.72389142    -0.18700
C2731       C  0.65660108  0.93767352  0.72248458    -0.18700
H2732       H  0.63098070  0.91366373  0.82729739     0.14200
H2733       H  0.63108980  0.84454619  0.82819061     0.14200
H2734       H  0.69966036  0.90696195  0.69454635     0.14200
H2735       H  0.69788409  0.83780692  0.69513032     0.14200
H2736       H  0.60795937  0.50311900  0.77080582     0.12500
H2737       H  0.62073952  0.50288206  0.73406475     0.12500
H2738       H  0.60964549  0.74857564  0.77325475     0.12500
H2739       H  0.62356734  0.74758581  0.73661465     0.12500
H2740       H  0.62579748  0.87663743  0.77047909     0.25700
H2741       H  0.63357462  0.87551077  0.73844201     0.25700
N2742       N  0.84394126  0.92902154  0.75760601    -0.37000
N2743       N  0.86616222  0.87578685  0.78434076    -0.57600
N2744       N  0.84526785  0.82088501  0.75832816    -0.37000
N2745       N  0.82690559  0.87400049  0.73074872    -0.57600
C2746       C  0.86119814  0.94884910  0.77003674     0.26500
C2747       C  0.84133536  0.94752219  0.74122623     0.26500
C2748       C  0.86389801  0.80237616  0.77068490     0.26500
C2749       C  0.84278157  0.80163219  0.74220767     0.26500
C2750       C  0.86864591  0.90445477  0.79557623     0.35200
C2751       C  0.86975950  0.84765588  0.79587202     0.35200
C2752       C  0.81383136  0.90197370  0.72178044     0.35200
C2753       C  0.81367239  0.84542695  0.72244948     0.35200
C2754       C  0.86923441  0.98047590  0.76157840    -0.22300
C2755       C  0.85689284  0.97955972  0.74337466    -0.22300
C2756       C  0.87325529  0.77099702  0.76234413    -0.22300
C2757       C  0.85996927  0.77054970  0.74437423    -0.22300
C2758       C  0.87388472  0.89447954  0.81429493    -0.23400
C2759       C  0.87443405  0.85856755  0.81450216    -0.23400
C2760       C  0.79183862  0.89116884  0.70792692    -0.23400
C2761       C  0.79162838  0.85529671  0.70840539    -0.23400
C2762       C  0.86928874  0.93945945  0.78893786    -0.18700
C2763       C  0.82397837  0.93685357  0.72473825    -0.18700
C2764       C  0.82417727  0.81081708  0.72594989    -0.18700
C2765       C  0.87156682  0.81244969  0.78954566    -0.18700
H2766       H  0.89151777  0.50062574  0.76508373     0.14200
H2767       H  0.86822315  0.49964237  0.73009924     0.14200
H2768       H  0.88826951  0.75056264  0.76850521     0.14200
H2769       H  0.86276827  0.74969067  0.73407764     0.14200
H2770       H  0.87741118  0.91135053  0.82649601     0.12500
H2771       H  0.87835476  0.84239218  0.82693020     0.12500
H2772       H  0.77782883  0.90742363  0.69828122     0.12500
H2773       H  0.77747092  0.83841707  0.69916343     0.12500
H2774       H  0.83203504  0.90563573  0.76074196     0.25700
H2775       H  0.83222270  0.84363518  0.76142537     0.25700
N2776       N  0.64313458  0.62683939  0.27713417    -0.37000
N2777       N  0.63192488  0.57244002  0.24835037    -0.57600
N2778       N  0.61587121  0.62566487  0.22132102    -0.37000
N2779       N  0.63046056  0.68001120  0.24911478    -0.57600
C2780       C  0.65782374  0.59861084  0.28497837     0.26500
C2781       C  0.65557525  0.65552995  0.28578789     0.26500
C2782       C  0.61879045  0.59713738  0.20999897     0.26500
C2783       C  0.61973771  0.65412698  0.21013364     0.26500
C2784       C  0.63178979  0.55379592  0.26464540     0.35200
C2785       C  0.61551984  0.55308594  0.23537317     0.35200
C2786       C  0.62959672  0.69963616  0.26511007     0.35200
C2787       C  0.61626602  0.69933936  0.23531175     0.35200
C2788       C  0.68014749  0.60946581  0.29867287    -0.22300
C2789       C  0.67862999  0.64547265  0.29923413    -0.22300
C2790       C  0.62521653  0.60760480  0.19144647    -0.22300
C2791       C  0.62573456  0.64361666  0.19152429    -0.22300
C2792       C  0.61500781  0.52261260  0.26212689    -0.23400
C2793       C  0.60439087  0.52230205  0.24358443    -0.23400
C2794       C  0.61455884  0.73148364  0.26149717    -0.23400
C2795       C  0.60614286  0.73132110  0.24258407    -0.23400
C2796       C  0.64908360  0.56350526  0.28117994    -0.18700
C2797       C  0.64521730  0.69024620  0.28229984    -0.18700
C2798       C  0.61436464  0.68905805  0.21602899    -0.18700
C2799       C  0.61281306  0.56231544  0.21596386    -0.18700
H2800       H  0.69556483  0.59313133  0.30752640     0.14200
H2801       H  0.69280640  0.66228723  0.30849905     0.14200
H2802       H  0.62854616  0.59106238  0.17907839     0.14200
H2803       H  0.62937103  0.66020990  0.17920839     0.14200
H2804       H  0.61200200  0.99865113  0.26836521     0.12500
H2805       H  0.59600388  0.99794325  0.23199256     0.12500
H2806       H  0.61045036  0.75279443  0.27136954     0.12500
H2807       H  0.59412591  0.75244405  0.23507883     0.12500
H2808       H  0.62299034  0.62631185  0.26798910     0.25700
H2809       H  0.60717283  0.62583405  0.23530532     0.25700
N2810       N  0.88560690  0.56989406  0.25764317    -0.37000
N2811       N  0.86657033  0.62307436  0.28521745    -0.57600
N2812       N  0.88408891  0.67718347  0.25840088    -0.37000
N2813       N  0.90003708  0.62418993  0.23008192    -0.57600
C2814       C  0.86870425  0.55068706  0.27059675     0.26500
C2815       C  0.88616201  0.55142110  0.24120205     0.26500
C2816       C  0.86637004  0.69551995  0.27140103     0.26500
C2817       C  0.88435929  0.69607387  0.24212746     0.26500
C2818       C  0.86758025  0.59454724  0.29653774     0.35200
C2819       C  0.86640273  0.65115238  0.29692622     0.35200
C2820       C  0.91198438  0.59624506  0.22052056     0.35200
C2821       C  0.91175985  0.65279707  0.22106545     0.35200
C2822       C  0.85841979  0.51968467  0.26228166    -0.22300
C2823       C  0.86954456  0.52010279  0.24374315    -0.22300
C2824       C  0.85509067  0.72625388  0.26322694    -0.22300
C2825       C  0.86657688  0.72667263  0.24477216    -0.22300
C2826       C  0.86857549  0.60454702  0.31551123    -0.23400
C2827       C  0.86781396  0.64044571  0.31575563    -0.23400
C2828       C  0.93166475  0.60709436  0.20544806    -0.23400
C2829       C  0.93160029  0.64300065  0.20582356    -0.23400
C2830       C  0.86385430  0.55985207  0.28994372    -0.18700
C2831       C  0.90275989  0.56135345  0.22429501    -0.18700
C2832       C  0.90191462  0.68733902  0.22534878    -0.18700
C2833       C  0.86185860  0.68596409  0.29071390    -0.18700
H2834       H  0.84068191  0.00201766  0.27035230     0.14200
H2835       H  0.85877230  0.00198427  0.23414413     0.14200
H2836       H  0.84022933  0.74640403  0.26985674     0.14200
H2837       H  0.86234029  0.74721910  0.23447316     0.14200
H2838       H  0.86912466  0.58772207  0.32789657     0.12500
H2839       H  0.86775141  0.65674740  0.32835583     0.12500
H2840       H  0.94422669  0.59088824  0.19506181     0.12500
H2841       H  0.94408993  0.65989899  0.19575825     0.12500
H2842       H  0.89895581  0.59253436  0.26044868     0.25700
H2843       H  0.89830858  0.65507142  0.26108086     0.25700
C2844       C  0.91279683  0.94145786  0.08439738     0.42000
N2845       N  0.95645933  0.93392142  0.10100246     0.00900
C2846       C  0.55210630  0.78265851  0.09732702    -0.07000
H2847       H  0.92126101  0.76520131  0.11087143     0.06400
C2848       C  0.94612610  0.83023943  0.17515182    -0.07300
Co2849     Co  0.99061663  0.86892277  0.08812171     0.74200
N2850       N  0.95440091  0.80824331  0.10462332    -0.26500
Co2851     Co  0.99351654  0.80858154  0.12426033     0.74100
C2852       C  0.93139434  0.79618155  0.17100534     0.42100
N2853       N  0.96555264  0.91640263  0.15774873     0.00500
N2854       N  0.96127354  0.81250668  0.14724449     0.00600
N2855       N  0.55018939  0.82430768  0.07448061    -0.47300
H2856       H  0.92372899  0.89319423  0.06604260     0.06400
N2857       N  0.95446153  0.83174565  0.09093151     0.00900
N2858       N  0.53294887  0.80933785  0.14268931     0.00700
C2859       C  0.57151340  0.79192600  0.16134986     0.42300
N2860       N  0.96320828  0.93903164  0.14360648    -0.25900
C2861       C  0.55129892  0.90906009  0.07172199    -0.06900
N2862       N  0.93092782  0.95540278  0.09872621    -0.47100
N2863       N  0.55310638  0.78300418  0.14616236    -0.47300
C2864       C  0.56871558  0.94077923  0.07699310     0.42000
N2865       N  0.02569025  0.82991834  0.08796849     0.00900
N2866       N  0.53457719  0.93735829  0.13852351    -0.26000
N2867       N  0.95578310  0.90760908  0.08889577    -0.26500
N2868       N  0.53739874  0.91472592  0.15261080     0.00500
H2869       H  0.55726993  0.98694455  0.13281464     0.06400
H2870       H  0.56615457  0.84099450  0.18002088     0.06500
N2871       N  0.02713111  0.80636663  0.10160993    -0.26500
N2872       N  0.96439482  0.83801780  0.15979375    -0.26100
N2873       N  0.02932741  0.93258501  0.09771473     0.00900
C2874       C  0.91129359  0.80144532  0.08508299     0.42300
C2875       C  0.94288725  0.96492172  0.14898895    -0.07400
N2876       N  0.53659702  0.83544269  0.15480165    -0.26100
H2877       H  0.94686902  0.84427317  0.18851878     0.06500
N2878       N  0.92957507  0.82853393  0.07911954    -0.47300
H2879       H  0.93966956  0.98923582  0.14136362     0.06400
C2880       C  0.57318855  0.95485764  0.15883631     0.42100
C2881       C  0.92955191  0.91035812  0.07778458    -0.06900
Co2882     Co  0.99573382  0.93686710  0.12044966     0.73800
N2883       N  0.94825475  0.92596327  0.17291907    -0.47100
C2884       C  0.56730086  0.79586066  0.07985134     0.42400
N2885       N  0.55362608  0.95420165  0.09257914    -0.47100
Co2886     Co  0.00066063  0.87649436  0.15712596     0.73900
C2887       C  0.56069315  0.82699191  0.16702647    -0.07400
C2888       C  0.92780440  0.78743749  0.10213435    -0.06900
N2889       N  0.02640960  0.90641652  0.08564409    -0.26500
N2890       N  0.94189614  0.78708899  0.15341430    -0.47200
H2891       H  0.55954445  0.76116955  0.10634325     0.06400
C2892       C  0.55647118  0.96301494  0.14100814    -0.07400
Cl2893     Cl  0.99511044  0.87276240  0.12256949    -0.50400
C2894       C  0.93303172  0.95630828  0.16852925     0.42200
H2895       H  0.55551215  0.89139184  0.05993542     0.06400
N2896       N  0.55993811  0.92447340  0.16518827    -0.47100
C2897       C  0.89625572  0.53608609  0.19145099    -0.13800
C2898       C  0.90986434  0.53401786  0.20978444     0.08400
C2899       C  0.93002050  0.50551556  0.21444100    -0.13800
C2900       C  0.93026712  0.97760646  0.20224294    -0.13800
C2901       C  0.92177016  0.98186009  0.18299099     0.08400
C2902       C  0.90397782  0.01168743  0.17753446    -0.13800
H2903       H  0.88030737  0.55770039  0.18769009     0.12400
H2904       H  0.94071620  0.50348974  0.22850867     0.12400
H2905       H  0.94399011  0.95488408  0.20687482     0.12400
H2906       H  0.89679490  0.01541848  0.16284018     0.12400
C2907       C  0.89688214  0.71371259  0.19275571    -0.13800
C2908       C  0.90900692  0.71559297  0.21142159     0.08400
C2909       C  0.92744246  0.74485050  0.21698730    -0.13800
C2910       C  0.93384735  0.77175099  0.20406163    -0.13800
C2911       C  0.92221792  0.76960990  0.18527177     0.08400
C2912       C  0.90373494  0.74036278  0.17972740    -0.13800
H2913       H  0.88230779  0.69149752  0.18827315     0.12400
H2914       H  0.93702613  0.74669518  0.23133078     0.12400
H2915       H  0.94869797  0.79363635  0.20866275     0.12400
H2916       H  0.89469220  0.73811773  0.16528389     0.12400
C2917       C  0.61675735  0.50156122  0.20148052    -0.13800
C2918       C  0.60274369  0.53531753  0.20162094     0.08400
C2919       C  0.57801571  0.54303539  0.18832387    -0.13800
C2920       C  0.57246582  0.01555117  0.17190159    -0.13800
C2921       C  0.58628363  0.98186241  0.17182393     0.08400
C2922       C  0.61187335  0.97418437  0.18452169    -0.13800
H2923       H  0.63620323  0.49490736  0.21135421     0.12400
H2924       H  0.56639045  0.56852505  0.18818919     0.12400
H2925       H  0.55239355  0.02213005  0.16244471     0.12400
H2926       H  0.62290141  0.94839630  0.18467763     0.12400
C2927       C  0.62204078  0.74686200  0.19927522    -0.13800
C2928       C  0.60464471  0.71530656  0.20147268     0.08400
C2929       C  0.57698932  0.70897076  0.19007382    -0.13800
C2930       C  0.56684182  0.73361992  0.17672623    -0.13800
C2931       C  0.58372468  0.76545956  0.17479856     0.08400
C2932       C  0.61135441  0.77200574  0.18617991    -0.13800
H2933       H  0.64354659  0.75216369  0.20788873     0.12400
H2934       H  0.56301706  0.68501920  0.19168030     0.12400
H2935       H  0.54518992  0.72815480  0.16826317     0.12400
H2936       H  0.62465823  0.79642864  0.18486715     0.12400
C2937       C  0.61766609  0.52064084  0.81932555    -0.13800
C2938       C  0.58532240  0.51719561  0.82628588     0.08400
C2939       C  0.56726801  0.48695776  0.82163956    -0.13800
C2940       C  0.58155987  0.96401451  0.80970820    -0.13800
C2941       C  0.61373523  0.96783225  0.80280814     0.08400
C2942       C  0.63145801  0.49427569  0.80780139    -0.13800
H2943       H  0.63217763  0.54349354  0.82277910     0.12400
H2944       H  0.54219387  0.48349237  0.82666858     0.12400
H2945       H  0.56714325  0.94118830  0.80600718     0.12400
H2946       H  0.65617305  0.49751277  0.80218159     0.12400
C2947       C  0.56590968  0.76808159  0.82289159    -0.13800
C2948       C  0.58306074  0.73799278  0.82883028     0.08400
C2949       C  0.61592881  0.73351724  0.82285012    -0.13800
C2950       C  0.63101257  0.75864822  0.81102991    -0.13800
C2951       C  0.61340074  0.78852349  0.80521146     0.08400
C2952       C  0.58090269  0.79298408  0.81136303    -0.13800
H2953       H  0.02799316  0.76553029  0.82164192     0.12400
H2954       H  0.62976414  0.71068043  0.82718886     0.12400
H2955       H  0.65609045  0.75458406  0.80615599     0.12400
H2956       H  0.05319884  0.80922906  0.80124210     0.12400
C2957       C  0.93556200  0.49049602  0.81591415    -0.13800
C2958       C  0.91579238  0.51688529  0.82408269     0.08400
C2959       C  0.87733124  0.01892197  0.82168922    -0.13800
C2960       C  0.86349802  0.99381184  0.80940045    -0.13800
C2961       C  0.88317012  0.96690639  0.80167707     0.08400
C2962       C  0.92211859  0.46563302  0.80371703    -0.13800
H2963       H  0.96160055  0.48872954  0.81904466     0.12400
H2964       H  0.86167188  0.03882437  0.82793936     0.12400
H2965       H  0.83744725  0.99496539  0.80616418     0.12400
H2966       H  0.93786399  0.44540378  0.79783575     0.12400
C2967       C  0.87862694  0.72874896  0.81891325    -0.13800
C2968       C  0.91006788  0.73260089  0.82687497     0.08400
C2969       C  0.92855782  0.76271993  0.82247563    -0.13800
C2970       C  0.91598962  0.78846882  0.81048478    -0.13800
C2971       C  0.88439103  0.78507631  0.80276002     0.08400
C2972       C  0.86583224  0.75489276  0.80698520    -0.13800
H2973       H  0.86383614  0.70593178  0.82210412     0.12400
H2974       H  0.95299731  0.76643672  0.82828791     0.12400
H2975       H  0.93099553  0.81110191  0.80717772     0.12400
H2976       H  0.84146183  0.75162870  0.80101267     0.12400
C2977       C  0.64457299  0.80115426  0.05053036    -0.13800
C2978       C  0.65575076  0.76660346  0.05101324     0.08400
C2979       C  0.63913844  0.74171265  0.06214782    -0.13800
C2980       C  0.61067311  0.75129186  0.07224106    -0.13800
C2981       C  0.59868617  0.78565321  0.07101828     0.08400
C2982       C  0.61617917  0.81057930  0.06037976    -0.13800
H2983       H  0.65725411  0.82052907  0.04195224     0.12400
H2984       H  0.64753199  0.71484329  0.06244599     0.12400
H2985       H  0.59738116  0.73169145  0.08031918     0.12400
H2986       H  0.60755179  0.83729268  0.05938580     0.12400
C2987       C  0.83748599  0.74883626  0.06761708    -0.13800
C2988       C  0.82877703  0.76834129  0.05141538     0.08400
C2989       C  0.84632046  0.79870006  0.04698331    -0.13800
C2990       C  0.87247367  0.80931361  0.05829281    -0.13800
C2991       C  0.88205610  0.78965295  0.07429302     0.08400
C2992       C  0.86413390  0.75942101  0.07901633    -0.13800
H2993       H  0.82398677  0.72533521  0.07123459     0.12400
H2994       H  0.83976738  0.81418228  0.03463879     0.12400
H2995       H  0.88545797  0.83293763  0.05428094     0.12400
H2996       H  0.87090535  0.74389049  0.09127644     0.12400
C2997       C  0.66115314  0.71433309  0.94196811    -0.13800
C2998       C  0.65693175  0.74281237  0.95421868     0.08400
C2999       C  0.62636520  0.76063447  0.95409742    -0.13800
C3000       C  0.59997803  0.74860964  0.94278365    -0.13800
C3001       C  0.60386306  0.71863971  0.93141339     0.08400
C3002       C  0.63519286  0.70255885  0.93073374    -0.13800
H3003       H  0.68413496  0.69988533  0.94185192     0.12400
H3004       H  0.62245048  0.78270276  0.96350374     0.12400
H3005       H  0.57638243  0.76178578  0.94352047     0.12400
H3006       H  0.63953241  0.67966184  0.92200479     0.12400
C3007       C  0.82301177  0.71306104  0.94130440    -0.13800
C3008       C  0.82868092  0.73892402  0.95498294     0.08400
C3009       C  0.86054357  0.75374527  0.95607808    -0.13800
C3010       C  0.88667261  0.74079607  0.94477423    -0.13800
C3011       C  0.88120598  0.71324463  0.93195617     0.08400
C3012       C  0.84865074  0.70082073  0.92982514    -0.13800
H3013       H  0.79895756  0.70100257  0.94008798     0.12400
H3014       H  0.86558640  0.77393380  0.96647802     0.12400
H3015       H  0.91127608  0.75111894  0.94670302     0.12400
H3016       H  0.84275662  0.68053548  0.91970073     0.12400
C3017       C  0.63882750  0.99878876  0.06068285    -0.13800
C3018       C  0.65712156  0.97494131  0.04970573     0.08400
C3019       C  0.64774188  0.93986336  0.04899031    -0.13800
C3020       C  0.61949803  0.92880953  0.05843044    -0.13800
C3021       C  0.60012730  0.95266715  0.06876868     0.08400
C3022       C  0.61037265  0.98761429  0.07028134    -0.13800
H3023       H  0.64590434  0.02605943  0.06120441     0.12400
H3024       H  0.66177506  0.92127559  0.04057848     0.12400
H3025       H  0.61260680  0.90159707  0.05732243     0.12400
H3026       H  0.59576625  0.00639104  0.07820916     0.12400
C3027       C  0.83592331  0.94316424  0.05507022    -0.13800
C3028       C  0.82878882  0.97883339  0.05428109     0.08400
C3029       C  0.84719396  0.00247408  0.06527431    -0.13800
C3030       C  0.87383674  0.99043651  0.07617183    -0.13800
C3031       C  0.88197963  0.95476837  0.07607772     0.08400
C3032       C  0.86201763  0.93121682  0.06596703    -0.13800
H3033       H  0.82178588  0.92464300  0.04675902     0.12400
H3034       H  0.84175770  0.03017027  0.06477890     0.12400
H3035       H  0.88890537  0.00900803  0.08384854     0.12400
H3036       H  0.86711502  0.90344109  0.06595573     0.12400
C3037       C  0.60750480  0.50464759  0.94030741    -0.13800
C3038       C  0.60582375  0.54001400  0.93485446     0.08400
C3039       C  0.63120041  0.56256218  0.94107460    -0.13800
C3040       C  0.65770881  0.55044723  0.95170220    -0.13800
C3041       C  0.65957981  0.51549110  0.95715883     0.08400
C3042       C  0.63405641  0.49255686  0.95158971    -0.13800
H3043       H  0.58848451  0.48655684  0.93592575     0.12400
H3044       H  0.63070978  0.59022763  0.93804093     0.12400
H3045       H  0.67628843  0.56885728  0.95637472     0.12400
H3046       H  0.64612040  0.96688524  0.94814689     0.12400
C3047       C  0.86042093  0.49334960  0.95545446    -0.13800
C3048       C  0.83268499  0.51534502  0.95785606     0.08400
C3049       C  0.83202428  0.54728008  0.94823678    -0.13800
C3050       C  0.85839793  0.55740573  0.93674107    -0.13800
C3051       C  0.88664235  0.53610957  0.93452934     0.08400
C3052       C  0.88727303  0.50367318  0.94387499    -0.13800
H3053       H  0.86159093  0.46866028  0.96295645     0.12400
H3054       H  0.81134906  0.56493589  0.95005828     0.12400
H3055       H  0.85672424  0.58263042  0.92981866     0.12400
H3056       H  0.90841734  0.48660031  0.94237925     0.12400
C3057       C  0.67674986  0.51954323  0.69505301    -0.13800
C3058       C  0.66095217  0.51544661  0.67739587     0.08400
C3059       C  0.64914426  0.98255300  0.67438240    -0.13800
C3060       C  0.64658600  0.95744282  0.68881624    -0.13800
C3061       C  0.66073515  0.96347342  0.70678123     0.08400
C3062       C  0.67340667  0.49428383  0.70920498    -0.13800
H3063       H  0.69236484  0.54191556  0.69780448     0.12400
H3064       H  0.63823292  0.97737583  0.66061723     0.12400
H3065       H  0.63329570  0.93344043  0.68605373     0.12400
H3066       H  0.68629378  0.49765523  0.72256170     0.12400
C3067       C  0.64010025  0.78685120  0.69178311    -0.13800
C3068       C  0.65766651  0.78406035  0.70891437     0.08400
C3069       C  0.67790267  0.75490503  0.71196681    -0.13800
C3070       C  0.68009502  0.72857192  0.69827121    -0.13800
C3071       C  0.66235536  0.73114509  0.68116820     0.08400
C3072       C  0.64262726  0.76065123  0.67793326    -0.13800
H3073       H  0.62436928  0.80922907  0.68921007     0.12400
H3074       H  0.69193171  0.75256281  0.72499782     0.12400
H3075       H  0.69633464  0.70664666  0.70089322     0.12400
H3076       H  0.62917754  0.76333834  0.66472004     0.12400
C3077       C  0.82749201  0.48534366  0.67436157    -0.13800
C3078       C  0.81038808  0.51602786  0.67921678     0.08400
C3079       C  0.80039314  0.52109261  0.69822417    -0.13800
C3080       C  0.79952892  0.99357583  0.71357521    -0.13800
C3081       C  0.81747610  0.96309746  0.70950199     0.08400
C3082       C  0.82986389  0.95802228  0.69096043    -0.13800
H3083       H  0.83557568  0.48087013  0.65983970     0.12400
H3084       H  0.78696070  0.54436256  0.70238566     0.12400
H3085       H  0.78956940  0.99789517  0.72772672     0.12400
H3086       H  0.84392535  0.93475536  0.68754154     0.12400
C3087       C  0.82134711  0.76258248  0.67867695    -0.13800
C3088       C  0.80505820  0.73157283  0.68370603     0.08400
C3089       C  0.79480861  0.72678636  0.70270116    -0.13800
C3090       C  0.80067365  0.75262980  0.71636520    -0.13800
C3091       C  0.81730193  0.78348358  0.71136004     0.08400
C3092       C  0.82777044  0.78811343  0.69241681    -0.13800
H3093       H  0.82929353  0.76694296  0.66411735     0.12400
H3094       H  0.78159109  0.70349031  0.70696127     0.12400
H3095       H  0.79221187  0.74862306  0.73085960     0.12400
H3096       H  0.84085751  0.81160032  0.68827248     0.12400
C3097       C  0.68169630  0.98024581  0.30246543    -0.13800
C3098       C  0.67116175  0.98450055  0.32142589     0.08400
C3099       C  0.65456661  0.51200658  0.32708305    -0.13800
C3100       C  0.64736914  0.53852546  0.31411101    -0.13800
C3101       C  0.65779504  0.53581663  0.29510168     0.08400
C3102       C  0.67350661  0.00500686  0.28865360    -0.13800
H3103       H  0.69701373  0.95825750  0.29840103     0.12400
H3104       H  0.64628458  0.51481791  0.34168658     0.12400
H3105       H  0.63344849  0.56109912  0.31886156     0.12400
H3106       H  0.68265908  0.00171381  0.27424208     0.12400
C3107       C  0.67607551  0.77534639  0.30340428    -0.13800
C3108       C  0.66590484  0.77263688  0.32249122     0.08400
C3109       C  0.64899666  0.74244793  0.32843151    -0.13800
C3110       C  0.64228691  0.71554174  0.31546313    -0.13800
C3111       C  0.65278790  0.71822981  0.29641185     0.08400
C3112       C  0.66997869  0.74826015  0.29059997    -0.13800
H3113       H  0.68972777  0.79784962  0.29841043     0.12400
H3114       H  0.64114806  0.73963219  0.34312249     0.12400
H3115       H  0.62891927  0.69265604  0.32025843     0.12400
H3116       H  0.67868948  0.75073302  0.27605221     0.12400
C3117       C  0.85966232  0.97746907  0.31936173    -0.13800
C3118       C  0.83177766  0.98364001  0.33077690     0.08400
C3119       C  0.81230733  0.51332854  0.32734401    -0.13800
C3120       C  0.82313229  0.53817515  0.31417942    -0.13800
C3121       C  0.85215396  0.53264305  0.30360880     0.08400
C3122       C  0.86963365  0.50120837  0.30607194    -0.13800
H3123       H  0.87291145  0.95297062  0.32045364     0.12400
H3124       H  0.78989792  0.51833741  0.33534216     0.12400
H3125       H  0.80891262  0.56188564  0.31227624     0.12400
H3126       H  0.89202658  0.49634534  0.29803303     0.12400
C3127       C  0.85491249  0.77115000  0.31868639    -0.13800
C3128       C  0.82682040  0.76503402  0.32991480     0.08400
C3129       C  0.81060302  0.73270566  0.32846951    -0.13800
C3130       C  0.82193798  0.70716623  0.31576563    -0.13800
C3131       C  0.85028055  0.71301640  0.30462425     0.08400
C3132       C  0.86683856  0.74517665  0.30636027    -0.13800
H3133       H  0.86780579  0.79586698  0.31961999     0.12400
H3134       H  0.78865272  0.72750106  0.33684183     0.12400
H3135       H  0.80841509  0.68287723  0.31451197     0.12400
H3136       H  0.88880235  0.75029324  0.29798591     0.12400
C3137       C  0.58573830  0.75019458  0.56406759    -0.13800
C3138       C  0.57692907  0.73159007  0.54761562     0.08400
C3139       C  0.59419523  0.70129161  0.54262138    -0.13800
C3140       C  0.62052587  0.69004181  0.55360914    -0.13800
C3141       C  0.63020104  0.70897165  0.56979984     0.08400
C3142       C  0.61234720  0.73891084  0.57514648    -0.13800
H3143       H  0.57234625  0.77356302  0.56811176     0.12400
H3144       H  0.58739244  0.68652649  0.53006600     0.12400
H3145       H  0.63358672  0.66665674  0.54923418     0.12400
H3146       H  0.61922449  0.75382140  0.58761312     0.12400
C3147       C  0.88260188  0.75377748  0.56073510    -0.13800
C3148       C  0.90419560  0.72773169  0.55409342     0.08400
C3149       C  0.89934761  0.69293932  0.55960518    -0.13800
C3150       C  0.87194415  0.68390545  0.57058863    -0.13800
C3151       C  0.84942911  0.70962438  0.57649280     0.08400
C3152       C  0.85545744  0.74478879  0.57210895    -0.13800
H3153       H  0.88593946  0.78069434  0.55636454     0.12400
H3154       H  0.91569299  0.67258043  0.55445754     0.12400
H3155       H  0.86756777  0.65661781  0.57385241     0.12400
H3156       H  0.83804164  0.76484318  0.57633964     0.12400
C3157       C  0.59029848  0.75190113  0.44370979    -0.13800
C3158       C  0.57099394  0.77781383  0.45254347     0.08400
C3159       C  0.57710116  0.81306179  0.44863676    -0.13800
C3160       C  0.60333366  0.82248847  0.43687979    -0.13800
C3161       C  0.62365736  0.79686579  0.42863752     0.08400
C3162       C  0.61642109  0.76141036  0.43160364    -0.13800
H3163       H  0.58582625  0.72454516  0.44671012     0.12400
H3164       H  0.56241830  0.83328404  0.45538213     0.12400
H3165       H  0.60848701  0.84994736  0.43471493     0.12400
H3166       H  0.63204013  0.74129124  0.42552347     0.12400
C3167       C  0.88565498  0.75449034  0.44457334    -0.13800
C3168       C  0.89611099  0.77593868  0.45957749     0.08400
C3169       C  0.87936290  0.80712316  0.46347520    -0.13800
C3170       C  0.85206756  0.81657821  0.45267821    -0.13800
C3171       C  0.84102036  0.79492239  0.43781654     0.08400
C3172       C  0.85820584  0.76394879  0.43371510    -0.13800
H3173       H  0.89838702  0.73021630  0.44154080     0.12400
H3174       H  0.88724077  0.82388587  0.47503320     0.12400
H3175       H  0.83944726  0.84075815  0.45609489     0.12400
H3176       H  0.85013871  0.74680680  0.42239406     0.12400
C3177       C  0.59483320  0.49938800  0.55472404    -0.13800
C3178       C  0.57621629  0.52448313  0.54484759     0.08400
C3179       C  0.58392593  0.55991766  0.54687808    -0.13800
C3180       C  0.61089166  0.57014679  0.55774550    -0.13800
C3181       C  0.63064548  0.54519079  0.56698820     0.08400
C3182       C  0.62183650  0.50973144  0.56588583    -0.13800
H3183       H  0.58908766  0.47188015  0.55329187     0.12400
H3184       H  0.56974228  0.57959150  0.53942174     0.12400
H3185       H  0.61668652  0.59772617  0.55855223     0.12400
H3186       H  0.63669569  0.49003334  0.57284648     0.12400
C3187       C  0.88790011  0.49854789  0.56444708    -0.13800
C3188       C  0.90458498  0.52076627  0.55169874     0.08400
C3189       C  0.89475766  0.55560183  0.55002973    -0.13800
C3190       C  0.86772399  0.56789668  0.56022231    -0.13800
C3191       C  0.84955801  0.54550602  0.57219656     0.08400
C3192       C  0.86044929  0.51093497  0.57472686    -0.13800
H3193       H  0.88711093  0.96881466  0.55707469     0.12400
H3194       H  0.90745281  0.57303271  0.54029131     0.12400
H3195       H  0.86068542  0.59490593  0.55824840     0.12400
H3196       H  0.83937613  0.98811403  0.57629752     0.12400
C3197       C  0.60595783  0.93986350  0.43761844    -0.13800
C3198       C  0.62700175  0.96334502  0.42812647     0.08400
C3199       C  0.61874989  0.99900681  0.42776096    -0.13800
C3200       C  0.59100414  0.01105378  0.43792756    -0.13800
C3201       C  0.57154358  0.98744083  0.44845780     0.08400
C3202       C  0.57870679  0.95176622  0.44772455    -0.13800
H3203       H  0.61115760  0.91216492  0.43786014     0.12400
H3204       H  0.63459385  0.01759322  0.42055463     0.12400
H3205       H  0.58566969  0.03877643  0.43838568     0.12400
H3206       H  0.56389558  0.93321539  0.45568805     0.12400
C3207       C  0.87783792  0.95576186  0.46637795    -0.13800
C3208       C  0.89654343  0.98381017  0.45955406     0.08400
C3209       C  0.88769765  0.99995879  0.44233559    -0.13800
C3210       C  0.86028424  0.98790299  0.43210022    -0.13800
C3211       C  0.84155329  0.95968479  0.43904474     0.08400
C3212       C  0.85070520  0.94389316  0.45631046    -0.13800
H3213       H  0.88434366  0.94297475  0.47961447     0.12400
H3214       H  0.90193492  0.02174508  0.43690188     0.12400
H3215       H  0.85380903  0.00048576  0.41881868     0.12400
H3216       H  0.83703494  0.92223503  0.46224845     0.12400
loop_ 
_geom_bond_atom_site_label_1 
_geom_bond_atom_site_label_2 
_geom_bond_distance 
_geom_bond_site_symmetry_2 
_ccdc_geom_bond_type 
N1           H33   1.039       .  S
N1            C5   1.351       .  A
N1          C810   1.354       .  A
N2           C10   1.350   1_655  A
N2         C1617   1.349       .  A
N3           H34   1.036       .  S
N3            C8   1.355   1_565  A
N3          C811   1.355   1_565  A
N4           C12   1.348   1_655  A
N4         C1619   1.349       .  A
C5           C13   1.385       .  A
C5           C21   1.410       .  A
C6          N805   1.354       .  A
C6           C22   1.418       .  A
C6           C14   1.389       .  A
C7          N807   1.355       .  A
C7           C15   1.389       .  A
C7           C24   1.418       .  A
C8           C23   1.420       .  A
C8           C16   1.387       .  A
C9         N1610   1.352       .  A
C9           C21   1.410       .  A
C9           C17   1.385       .  A
C10          C24   1.411       .  A
C10          C18   1.386   1_455  A
C11        N1612   1.350       .  A
C11          C19   1.385       .  A
C11          C22   1.411       .  A
C12          C20   1.387       .  A
C12          C23   1.410       .  A
C13         C818   1.373       .  A
C13          H25   1.083       .  S
C14         C817   1.374       .  A
C14          H26   1.082       .  S
C15         C820   1.373       .  A
C15          H27   1.082       .  S
C16         C819   1.372       .  A
C16          H28   1.082       .  S
C17        C1626   1.374       .  A
C17          H29   1.082       .  S
C18        C1625   1.373       .  A
C18          H30   1.082   1_655  S
C19        C1628   1.375       .  A
C19          H31   1.082       .  S
C20        C1627   1.375   1_455  A
C20          H32   1.082       .  S
C21         C796   1.480       .  S
C22         C776   1.481       .  S
C23         C766   1.481       .  S
C24         C789   1.483       .  S
N35          H67   1.036       .  S
N35          C40   1.353       .  A
N35          C39   1.353       .  A
N36          C44   1.353       .  A
N36        C1651   1.352       .  A
N37          H68   1.036       .  S
N37          C42   1.354       .  A
N37          C41   1.353       .  A
N38          C46   1.350       .  A
N38        C1653   1.349       .  A
C39          C47   1.389       .  A
C39          C55   1.419       .  A
C40          C56   1.414       .  A
C40          C48   1.386       .  A
C41          C49   1.385       .  A
C41          C58   1.414       .  A
C42          C57   1.420       .  A
C42          C50   1.390       .  A
C43        N1644   1.349   1_455  A
C43          C55   1.412       .  A
C43          C51   1.387       .  A
C44          C58   1.412       .  A
C44          C52   1.385       .  A
C45        N1646   1.351   1_455  A
C45          C53   1.386       .  A
C45          C56   1.410       .  A
C46          C54   1.387       .  A
C46          C57   1.412       .  A
C47          C48   1.374       .  A
C47          H59   1.082       .  S
C48          H60   1.082       .  S
C49          C50   1.373       .  A
C49          H61   1.083       .  S
C50          H62   1.082       .  S
C51        C1660   1.374   1_455  A
C51          H63   1.082       .  S
C52        C1659   1.373       .  A
C52          H64   1.082       .  S
C53        C1662   1.373   1_455  A
C53          H65   1.082       .  S
C54        C1661   1.373       .  A
C54          H66   1.082       .  S
C55         C726   1.480       .  S
C56         C746   1.479       .  S
C57         C756   1.482       .  S
C58         C736   1.485       .  S
C69          N87   1.355       .  A
C69         C106   1.457       .  S
C69         C799   1.479       .  S
N70          N87   1.329       .  A
N70          N92   1.318       .  A
N70        Co107   2.094       .  S
C71          N96   1.349       .  A
C71         H116   1.081       .  S
C71         C109   1.468       .  S
H72         C113   1.081       .  S
C73          N97   1.345       .  A
C73         H102   1.082       .  S
C73          C77   1.468       .  S
Co74         N92   2.066       .  S
Co74         N82   2.071       .  S
Co74        N114   2.059       .  S
Co74         N90   2.065       .  S
Co74       Cl118   2.434       .  S
N75         C113   1.345       .  A
N75          N82   1.318       .  A
N75         Co76   2.087       .  S
Co76         N79   2.079       .  S
Co76         N96   2.094       .  S
Co76         N83   2.080       .  S
Co76       Cl118   2.459       .  S
C77         N115   1.348       .  A
C77         C716   1.477       .  S
N78          N85   1.321       .  A
N78         N108   1.328       .  A
N78        Co111   2.097       .  S
N79          N97   1.321       .  A
N79         N115   1.321       .  A
N80         C109   1.343       .  A
N80          N90   1.318       .  A
H81         C106   1.080       .  S
N82         N103   1.320       .  A
N83         N101   1.319       .  A
N83          N88   1.324       .  A
C84          N88   1.351       .  A
C84         C112   1.464       .  S
C84         C696   1.474       .  S
N85         C100   1.338       .  A
N85        Co107   2.086       .  S
C86         N114   1.331       .  A
C86         H120   1.081       .  S
C86          C89   1.448       .  S
C89         N110   1.357       .  A
C89         C786   1.475       .  S
N90          N96   1.318       .  A
N91         C117   1.339       .  A
N91          N93   1.320       .  A
N91        Co107   2.082       .  S
N92         C106   1.333       .  A
N93         N121   1.323       .  A
N93        Co111   2.085       .  S
H94         C117   1.082       .  S
H95         C112   1.082       .  S
N97        Co111   2.099       .  S
N98         N110   1.332       .  A
N98         N114   1.318       .  A
N98        Co107   2.105       .  S
C99         N103   1.346       .  A
C99         C113   1.463       .  S
C99         C759   1.471       .  S
C100        H104   1.082       .  S
C100        C119   1.461       .  S
N101        C112   1.338       .  A
N101       Co111   2.086       .  S
C105        N121   1.351       .  A
C105        C117   1.463       .  S
C105        C686   1.475       .  S
Co107      Cl118   2.456       .  S
N108        C119   1.355       .  A
C109        C749   1.475       .  S
Co111      Cl118   2.446       .  S
C119        C706   1.479       .  S
C122        N140   1.357       .  A
C122        C159   1.447       .  S
C122        C779   1.473       .  S
N123        N140   1.331       .  A
N123        N145   1.319       .  A
N123       Co160   2.104       .  S
C124        N149   1.347       .  A
C124        H169   1.081       .  S
C124        C162   1.465       .  S
H125        C166   1.081       .  S
C126        N150   1.338       .  A
C126        H155   1.082       .  S
C126        C130   1.464       .  S
Co127       N145   2.060       .  S
Co127       N135   2.072       .  S
Co127       N167   2.072       .  S
Co127       N143   2.064       .  S
Co127      Cl171   2.428       .  S
N128        C166   1.349       .  A
N128        N135   1.317       .  A
N128       Co129   2.094       .  S
Co129       N132   2.082       .  S
Co129       N149   2.096       .  S
Co129       N136   2.086       .  S
Co129      Cl171   2.468       .  S
C130        N168   1.351       .  A
C130        C676   1.476       .  S
N131        N138   1.320       .  A
N131        N161   1.322       .  A
N131       Co164   2.078       .  S
N132        N150   1.319       .  A
N132        N168   1.324       .  A
N133        C162   1.344       .  A
N133        N143   1.319       .  A
H134        C159   1.081       .  S
N135        N156   1.318       .  A
N136        N154   1.320       .  A
N136        N141   1.324       .  A
C137        N141   1.352       .  A
C137        C165   1.463       .  S
C137        C659   1.475       .  S
N138        C153   1.341       .  A
N138       Co160   2.083       .  S
C139        N167   1.335       .  A
C139        H173   1.081       .  S
C139        C142   1.453       .  S
C142        N163   1.353       .  A
C142        C769   1.472       .  S
N143        N149   1.319       .  A
N144        C170   1.344       .  A
N144        N146   1.321       .  A
N144       Co160   2.094       .  S
N145        C159   1.331       .  A
N146        N174   1.321       .  A
N146       Co164   2.081       .  S
H147        C170   1.082       .  S
H148        C165   1.082       .  S
N150       Co164   2.082       .  S
N151        N163   1.329       .  A
N151        N167   1.320       .  A
N151       Co160   2.095       .  S
C152        N156   1.345       .  A
C152        C166   1.469       .  S
C152        C739   1.481       .  S
C153        H157   1.082       .  S
C153        C172   1.464       .  S
N154        C165   1.338       .  A
N154       Co164   2.082       .  S
C158        N174   1.349       .  A
C158        C170   1.466       .  S
C158        C646   1.478       .  S
Co160      Cl171   2.467       .  S
N161        C172   1.349       .  A
C162        C729   1.470       .  S
Co164      Cl171   2.425       .  S
C172        C666   1.477       .  S
N175        H207   1.041       .  S
N175        C180   1.352       .  A
N175        C983   1.353   1_554  A
N176        C183   1.357       .  A
N176        C184   1.356       .  A
N177        H208   1.040       .  S
N177        C182   1.354       .  A
N177        C985   1.354   1_554  A
N178        C185   1.350       .  A
N178        C186   1.350       .  A
C179        N979   1.355   1_546  A
C179        C187   1.389       .  A
C179        C195   1.417       .  A
C180        C196   1.408       .  A
C180        C188   1.384       .  A
C181        N981   1.353   1_546  A
C181        C189   1.388       .  A
C181        C198   1.418       .  A
C182        C197   1.412       .  A
C182        C190   1.385       .  A
C183        C195   1.422       .  A
C183        C191   1.385       .  A
C184        C198   1.426       .  A
C184        C192   1.387       .  A
C185        C193   1.386       .  A
C185        C196   1.407       .  A
C186        C194   1.386       .  A
C186        C197   1.408       .  A
C187        C992   1.372   1_556  A
C187        H199   1.082       .  S
C188        C991   1.373   1_554  A
C188        H200   1.083       .  S
C189        C994   1.373   1_556  A
C189        H201   1.082       .  S
C190        C993   1.375   1_554  A
C190        H202   1.082       .  S
C191        C192   1.380       .  A
C191        H203   1.082       .  S
C192        H204   1.082       .  S
C193        C194   1.373       .  A
C193        H205   1.082       .  S
C194        H206   1.082       .  S
C195        C629   1.498       .  S
C196        C606   1.480       .  S
C197        C616   1.480       .  S
C198        C636   1.498       .  S
N209        H241   1.039       .  S
N209        C214   1.353   1_554  A
N209        C213   1.351       .  A
N210        C217   1.349       .  A
N210        C218   1.350       .  A
N211        H242   1.040       .  S
N211        C216   1.353   1_554  A
N211        C215   1.354       .  A
N212        C219   1.355       .  A
N212        C220   1.353       .  A
C213        C221   1.385       .  A
C213        C229   1.407       .  A
C214        C230   1.414       .  A
C214        C222   1.389       .  A
C215        C223   1.383       .  A
C215        C232   1.410       .  A
C216        C231   1.419       .  A
C216        C224   1.391       .  A
C217        C229   1.405       .  A
C217        C225   1.386       .  A
C218        C232   1.406       .  A
C218        C226   1.386       .  A
C219        C227   1.385       .  A
C219        C230   1.420       .  A
C220        C228   1.388       .  A
C220        C231   1.424       .  A
C221        C222   1.372   1_554  A
C221        H233   1.082       .  S
C222        H234   1.082       .  S
C223        C224   1.374   1_554  A
C223        H235   1.083       .  S
C224        H236   1.082       .  S
C225        C226   1.372       .  A
C225        H237   1.082       .  S
C226        H238   1.082       .  S
C227        C228   1.378       .  A
C227        H239   1.082       .  S
C228        H240   1.082       .  S
C229        C566   1.472       .  S
C230        C586   1.493       .  S
C231        C596   1.496       .  S
C232        C576   1.482       .  S
C243        N261   1.334       .  A
C243        C280   1.490       .  S
C243        C639   1.494       .  S
N244        N261   1.312       .  A
N244        N266   1.322       .  A
N244       Co281   2.059       .  S
C245        N270   1.352       .  A
C245        H290   1.081       .  S
C245        C283   1.476       .  S
H246        C287   1.081       .  S
C247        N271   1.360       .  A
C247        H276   1.081       .  S
C247        C251   1.486       .  S
Co248       N266   2.135       .  S
Co248       N288   2.078       .  S
Co248      N1864   2.133       .  S
Co248      N1872   2.068       .  S
Co248      Cl292   2.475       .  S
N249        C287   1.327       .  A
N249        N256   1.320       .  A
N249       Co250   2.060       .  S
Co250       N253   2.061       .  S
Co250       N270   2.108       .  S
Co250       N257   2.104       .  S
Co250     Cl1900   2.433   1_455  S
C251        N289   1.335       .  A
C251        C589   1.489       .  S
N252        N259   1.319       .  A
N252        N282   1.337       .  A
N252       Co285   2.120       .  S
N253        N271   1.323       .  A
N253        N289   1.312       .  A
N254        C283   1.340       .  A
N254        N264   1.317       .  A
H255        C280   1.081       .  S
N256        N277   1.340       .  A
N256      Co1856   2.137   1_455  S
N257        N275   1.319       .  A
N257        N262   1.333       .  A
C258        N262   1.362       .  A
C258        C286   1.449       .  S
C258        C536   1.485       .  S
N259        C274   1.323       .  A
N259       Co281   2.057       .  S
C260        N288   1.333       .  A
C260        H294   1.081       .  S
C260        C263   1.454       .  S
C263        N284   1.359       .  A
C263        C546   1.485       .  S
N264        N270   1.321       .  A
N264      Co1856   2.068   1_455  S
N265        C291   1.357       .  A
N265        N267   1.321       .  A
N265       Co281   2.116       .  S
N266        C280   1.364       .  A
N267        N295   1.318       .  A
N267       Co285   2.076       .  S
H268        C291   1.081       .  S
H269        C286   1.080       .  S
N271      Co1893   2.128   1_455  S
N272        N284   1.332       .  A
N272        N288   1.320       .  A
N272       Co281   2.099       .  S
C273        N277   1.370       .  A
C273        C287   1.444       .  S
C273        C626   1.497       .  S
C274        H278   1.079       .  S
C274        C293   1.444       .  S
N275        C286   1.328       .  A
N275      Co1893   2.066   1_455  S
C279        N295   1.342       .  A
C279        C291   1.481       .  S
C279        C556   1.492       .  S
Co281      Cl292   2.424       .  S
N282        C293   1.367       .  A
C283        C526   1.480       .  S
Co285      N1879   2.136       .  S
Co285      N1883   2.060       .  S
Co285      Cl292   2.475       .  S
Cl292     Co1858   2.425       .  S
C293        C599   1.491       .  S
N296        H328   1.038       .  S
N296        C301   1.355       .  A
N296        C300   1.355       .  A
N297        C304   1.352       .  A
N297        C305   1.351       .  A
N298        H329   1.040       .  S
N298        C303   1.353       .  A
N298        C302   1.351       .  A
N299        C306   1.350       .  A
N299        C307   1.351       .  A
C300        C308   1.387       .  A
C300        C316   1.419       .  A
C301        C317   1.419       .  A
C301        C309   1.387       .  A
C302        C310   1.387       .  A
C302        C319   1.413       .  A
C303        C318   1.414       .  A
C303        C311   1.387       .  A
C304        C316   1.413       .  A
C304        C312   1.386       .  A
C305        C319   1.413       .  A
C305        C313   1.387       .  A
C306        C314   1.387       .  A
C306        C317   1.411       .  A
C307        C315   1.386       .  A
C307        C318   1.410       .  A
C308        C309   1.379       .  A
C308        H320   1.082       .  S
C309        H321   1.082       .  S
C310        C311   1.377       .  A
C310        H322   1.082       .  S
C311        H323   1.082       .  S
C312        C313   1.371       .  A
C312       H1128   1.082       .  S
C313       H1129   1.082       .  S
C314        C315   1.370       .  A
C314        H326   1.082       .  S
C315        H327   1.082       .  S
C316        C529   1.492       .  S
C317        C539   1.488       .  S
C318        C656   1.487       .  S
C319        C649   1.483       .  S
H324       C1116   1.082   1_545  S
H325       C1117   1.082   1_545  S
N330        H362   1.041       .  S
N330        C335   1.355       .  A
N330        C334   1.355       .  A
N331        C338   1.356       .  A
N331        C339   1.357       .  A
N332        H363   1.041       .  S
N332        C337   1.354       .  A
N332        C336   1.354       .  A
N333        C340   1.351       .  A
N333        C341   1.351       .  A
C334        C342   1.387       .  A
C334        C350   1.417       .  A
C335        C351   1.417       .  A
C335        C343   1.387       .  A
C336        C344   1.388       .  A
C336        C353   1.417       .  A
C337        C352   1.415       .  A
C337        C345   1.386       .  A
C338        C350   1.420       .  A
C338        C346   1.385       .  A
C339        C353   1.425       .  A
C339        C347   1.387       .  A
C340        C348   1.387       .  A
C340        C351   1.413       .  A
C341        C349   1.386       .  A
C341        C352   1.412       .  A
C342        C343   1.376       .  A
C342       H1158   1.082       .  S
C343       H1159   1.082       .  S
C344        C345   1.375       .  A
C344        H356   1.082       .  S
C345        H357   1.082       .  S
C346        C347   1.377       .  A
C346        H358   1.082       .  S
C347        H359   1.082       .  S
C348        C349   1.374       .  A
C348        H360   1.082       .  S
C349        H361   1.082       .  S
C350        C549   1.497       .  S
C351        C669   1.492       .  S
C352        C679   1.489       .  S
C353        C559   1.504       .  S
H354       C1146   1.082       .  S
H355       C1147   1.082       .  S
N364        H396   1.042       .  S
N364        C369   1.353       .  A
N364        C368   1.353       .  A
N365        C372   1.350       .  A
N365        C373   1.352       .  A
N366        H397   1.042       .  S
N366        C371   1.353       .  A
N366        C370   1.353       .  A
N367        C374   1.349       .  A
N367        C375   1.350       .  A
C368        C376   1.387       .  A
C368        C384   1.415       .  A
C369        C385   1.414       .  A
C369        C377   1.386       .  A
C370        C378   1.386       .  A
C370        C387   1.416       .  A
C371        C386   1.416       .  A
C371        C379   1.387       .  A
C372        C384   1.411       .  A
C372        C380   1.385       .  A
C373        C387   1.414       .  A
C373        C381   1.387       .  A
C374        C382   1.386       .  A
C374        C385   1.410       .  A
C375        C383   1.387       .  A
C375        C386   1.411       .  A
C376        C377   1.377       .  A
C376        H388   1.082       .  S
C377        H389   1.082       .  S
C378        C379   1.378       .  A
C378        H390   1.082       .  S
C379        H391   1.082       .  S
C380        C381   1.374       .  A
C380       H1196   1.082       .  S
C381       H1197   1.082       .  S
C382        C383   1.373       .  A
C382        H394   1.082       .  S
C383        H395   1.082       .  S
C384        C689   1.490       .  S
C385        C699   1.487       .  S
C386        C516   1.492       .  S
C387        C506   1.497       .  S
H392       C1184   1.082       .  S
H393       C1185   1.082       .  S
N398        H430   1.040       .  S
N398        C403   1.353       .  A
N398        C402   1.355       .  A
N399        C406   1.352       .  A
N399        C407   1.354       .  A
N400        H431   1.041       .  S
N400        C405   1.352       .  A
N400        C404   1.353       .  A
N401        C408   1.353       .  A
N401        C409   1.354       .  A
C402        C410   1.387       .  A
C402        C418   1.418       .  A
C403        C419   1.418       .  A
C403        C411   1.387       .  A
C404        C412   1.388       .  A
C404        C421   1.416       .  A
C405        C420   1.413       .  A
C405        C413   1.386       .  A
C406        C418   1.415       .  A
C406        C414   1.386       .  A
C407        C421   1.417       .  A
C407        C415   1.386       .  A
C408        C416   1.387       .  A
C408        C419   1.418       .  A
C409        C417   1.385       .  A
C409        C420   1.416       .  A
C410        C411   1.376       .  A
C410       H1226   1.082   1_545  S
C411       H1227   1.082   1_545  S
C412        C413   1.375       .  A
C412        H424   1.082       .  S
C413        H425   1.082       .  S
C414        C415   1.373       .  A
C414        H426   1.082       .  S
C415        H427   1.082       .  S
C416        C417   1.374       .  A
C416        H428   1.082       .  S
C417        H429   1.082       .  S
C418        C709   1.496       .  S
C419        C486   1.495       .  S
C420        C496   1.493       .  S
C421        C719   1.498       .  S
H422       C1214   1.082       .  S
H423       C1215   1.082       .  S
C432        N450   1.359       .  A
C432        C469   1.448       .  S
C432        C619   1.478       .  S
N433        N450   1.332       .  A
N433        N455   1.317       .  A
N433       Co470   2.109       .  S
C434       N2067   1.344       .  A
C434        H479   1.081       .  S
C434        C472   1.461       .  S
H435        C476   1.081       .  S
C436        N460   1.342       .  A
C436        H465   1.082       .  S
C436        C440   1.466       .  S
Co437       N455   2.048       .  S
Co437       N445   2.061       .  S
Co437       N477   2.064       .  S
Co437       N453   2.057       .  S
Co437      Cl481   2.434       .  S
N438        C476   1.350       .  A
N438        N445   1.318       .  A
N438       Co439   2.098       .  S
Co439       N442   2.086       .  S
Co439       N459   2.093       .  S
Co439      N2054   2.069       .  S
Co439      Cl481   2.455       .  S
C440        N478   1.351       .  A
C440        C499   1.481       .  S
N441        N448   1.322       .  A
N441        N471   1.323       .  A
N441       Co474   2.092       .  S
N442        N460   1.321       .  A
N442        N478   1.325       .  A
N443        C472   1.346       .  A
N443       N2061   1.319       .  A
H444        C469   1.081       .  S
N445        N466   1.316       .  A
N446        N464   1.320       .  A
N446        N451   1.320       .  A
N446      Co2047   2.079   1_455  S
C447        N451   1.348       .  A
C447        C475   1.468       .  S
C447        C519   1.474       .  S
N448        C463   1.342       .  A
N448       Co470   2.093       .  S
C449       N2085   1.331       .  A
C449        H483   1.080       .  S
C449        C452   1.454       .  S
C452        N473   1.353       .  A
C452        C609   1.473       .  S
N453        N459   1.316       .  A
N453       N2051   1.317       .  A
N454        C480   1.337       .  A
N454        N456   1.319       .  A
N454      Co2078   2.077   1_455  S
N455        C469   1.328       .  A
N456        N484   1.327       .  A
N456      Co2082   2.098       .  S
H457        C480   1.082       .  S
H458        C475   1.082       .  S
N459       C2042   1.349       .  A
N460       Co474   2.094       .  S
N461        N477   1.318       .  A
N461       N2081   1.330       .  A
N461       Co470   2.102       .  S
C462        N466   1.343       .  A
C462        C476   1.471       .  S
C462        C579   1.478       .  S
C463        H467   1.082       .  S
C463        C482   1.465       .  S
N464        C475   1.344       .  A
N464      Co2082   2.095       .  S
C468        N484   1.355       .  A
C468        C480   1.459       .  S
C468        C509   1.474       .  S
Co470      N2062   2.082       .  S
Co470      Cl481   2.456       .  S
N471        C482   1.351       .  A
C472        C569   1.469       .  S
N473       N2069   1.328       .  A
Co474      N2064   2.099       .  S
Co474      N2072   2.101       .  S
Co474      Cl481   2.449       .  S
N477       C2057   1.333       .  A
C482        C489   1.479       .  S
C485        C486   1.406       .  A
C485       C1294   1.399       .  A
C485        H491   1.083       .  S
C486        C487   1.406       .  A
C487       C1292   1.399   1_545  A
C487        H492   1.083       .  S
C488        C489   1.405       .  A
C488       C1291   1.397       .  A
C488        H493   1.083       .  S
C489        C490   1.404       .  A
C490       C1289   1.401       .  A
C490        H494   1.083       .  S
C495        C496   1.404       .  A
C495        C500   1.400       .  A
C495        H501   1.083       .  S
C496        C497   1.405       .  A
C497        C498   1.400       .  A
C497        H502   1.083       .  S
C498        C499   1.406       .  A
C498        H503   1.082       .  S
C499        C500   1.405       .  A
C500        H504   1.083       .  S
C505        C506   1.409       .  A
C505       C1314   1.402   1_545  A
C505        H511   1.083   1_545  S
C506        C507   1.405       .  A
C507       C1312   1.397       .  A
C507        H512   1.083       .  S
C508        C509   1.404       .  A
C508       C1311   1.396       .  A
C508        H513   1.083       .  S
C509        C510   1.402       .  A
C510       C1309   1.402       .  A
C510        H514   1.083       .  S
C515        C516   1.409       .  A
C515        C520   1.402       .  A
C515        H521   1.083       .  S
C516        C517   1.402       .  A
C517        C518   1.392       .  A
C517        H522   1.083       .  S
C518        C519   1.404       .  A
C518        H523   1.083       .  S
C519        C520   1.403       .  A
C520        H524   1.083       .  S
C525        C526   1.403       .  A
C525        C530   1.405   1_545  A
C525        H531   1.082       .  S
C526        C527   1.409   1_545  A
C527       C1332   1.395       .  A
C527        H532   1.083       .  S
C528        C529   1.399       .  A
C528       C1331   1.394       .  A
C528        H533   1.083       .  S
C529       C1334   1.409       .  A
C530       C1333   1.408       .  A
C530        H534   1.083       .  S
C535        C536   1.410       .  A
C535        C540   1.391       .  A
C535       H2149   1.080       .  S
C536        C537   1.405       .  A
C537        C538   1.406       .  A
C537        H542   1.083       .  S
C538        C539   1.409       .  A
C538        H543   1.083       .  S
C539        C540   1.397       .  A
C540       H2152   1.084       .  S
H541       C2143   1.080       .  S
H544       C2148   1.084       .  S
C545        C546   1.408   1_565  A
C545        C550   1.393       .  A
C545        H551   1.081       .  S
C546       C1351   1.406       .  A
C547        C548   1.412       .  A
C547       C1350   1.408       .  A
C547        H552   1.083       .  S
C548        C549   1.410       .  A
C548        H553   1.083       .  S
C549       C1354   1.399       .  A
C550       C1353   1.400       .  A
C550        H554   1.084       .  S
C555        C556   1.405       .  A
C555        C560   1.411       .  A
C555        H561   1.082       .  S
C556        C557   1.410       .  A
C557        C558   1.395       .  A
C557        H562   1.083       .  S
C558        C559   1.401       .  A
C558        H563   1.083       .  S
C559        C560   1.414       .  A
C560        H564   1.083       .  S
C565        C566   1.397       .  A
C565        C570   1.388       .  A
C565        H571   1.084       .  S
C566        C567   1.402       .  A
C567        C568   1.401       .  A
C567        H572   1.083       .  S
C568        C569   1.406       .  A
C568        H573   1.083       .  S
C569        C570   1.403       .  A
C570        H574   1.083       .  S
C575        C576   1.407       .  A
C575        C580   1.406       .  A
C575        H581   1.083       .  S
C576        C577   1.397       .  A
C577        C578   1.388       .  A
C577        H582   1.084       .  S
C578        C579   1.407       .  A
C578        H583   1.083       .  S
C579        C580   1.406       .  A
C580        H584   1.082       .  S
C585        C586   1.396       .  A
C585        C590   1.391       .  A
C585        H591   1.084       .  S
C586        C587   1.413       .  A
C587        C588   1.411       .  A
C587        H592   1.083       .  S
C588        C589   1.404       .  A
C588        H593   1.082       .  S
C589        C590   1.412       .  A
C590        H594   1.083       .  S
C595        C596   1.396       .  A
C595        C600   1.388       .  A
C595        H601   1.084       .  S
C596        C597   1.413       .  A
C597        C598   1.409       .  A
C597        H602   1.083       .  S
C598        C599   1.404       .  A
C598        H603   1.083       .  S
C599        C600   1.413       .  A
C600        H604   1.078       .  S
C605        C606   1.405       .  A
C605        C610   1.403       .  A
C605        H611   1.083       .  S
C606        C607   1.399       .  A
C607        C608   1.386       .  A
C607        H612   1.084       .  S
C608        C609   1.403       .  A
C608        H613   1.081       .  S
C609        C610   1.406       .  A
C610        H614   1.083       .  S
C615        C616   1.397       .  A
C615        C620   1.389       .  A
C615        H621   1.084       .  S
C616        C617   1.406       .  A
C617        C618   1.406       .  A
C617        H622   1.083       .  S
C618        C619   1.405       .  A
C618        H623   1.083       .  S
C619        C620   1.407       .  A
C620        H624   1.082       .  S
C625        C626   1.406       .  A
C625        C630   1.414   1_545  A
C625        H631   1.083   1_545  S
C626        C627   1.413       .  A
C627        C628   1.396       .  A
C627        H632   1.082       .  S
C628        C629   1.397       .  A
C628        H633   1.084       .  S
C629        C630   1.412   1_545  A
C630       H1438   1.083       .  S
H634       C1434   1.083       .  S
C635        C636   1.414   1_565  A
C635        C640   1.413   1_565  A
C635        H641   1.083       .  S
C636        C637   1.395       .  A
C637        C638   1.392       .  A
C637        H642   1.084       .  S
C638        C639   1.414       .  A
C638        H643   1.083       .  S
C639        C640   1.404       .  A
C640        H644   1.082   1_545  S
C645        C646   1.407       .  A
C645        C650   1.395   1_545  A
C645        H651   1.083       .  S
C646       C1451   1.403   1_545  A
C647        C648   1.399       .  A
C647       C1450   1.401       .  A
C647        H652   1.083       .  S
C648        C649   1.405       .  A
C648        H653   1.083       .  S
C649       C1454   1.401       .  A
C650       C1453   1.402       .  A
C650        H654   1.083       .  S
C655        C656   1.404       .  A
C655        C660   1.399       .  A
C655        H661   1.083       .  S
C656        C657   1.403       .  A
C657        C658   1.396       .  A
C657        H662   1.083       .  S
C658        C659   1.406       .  A
C658        H663   1.082       .  S
C659        C660   1.403       .  A
C660        H664   1.083       .  S
C665        C666   1.403   1_565  A
C665       C1474   1.398       .  A
C665        H671   1.083       .  S
C666        C667   1.406       .  A
C667       C1472   1.397   1_545  A
C667        H672   1.083       .  S
C668        C669   1.404       .  A
C668       C1471   1.398       .  A
C668        H673   1.083       .  S
C669        C670   1.406       .  A
C670       C1469   1.400       .  A
C670        H674   1.083       .  S
C675        C676   1.404       .  A
C675        C680   1.400       .  A
C675        H681   1.083       .  S
C676        C677   1.405       .  A
C677        C678   1.395       .  A
C677        H682   1.082       .  S
C678        C679   1.403       .  A
C678        H683   1.083       .  S
C679        C680   1.406       .  A
C680        H684   1.083       .  S
C685        C686   1.404       .  A
C685        C690   1.396       .  A
C685        H691   1.083       .  S
C686       C1491   1.403       .  A
C687        C688   1.399       .  A
C687       C1490   1.404   1_545  A
C687        H692   1.083       .  S
C688        C689   1.405       .  A
C688        H693   1.083       .  S
C689       C1494   1.405       .  A
C690       C1493   1.406       .  A
C690        H694   1.083       .  S
C695        C696   1.404       .  A
C695        C700   1.393       .  A
C695        H701   1.082       .  S
C696        C697   1.404       .  A
C697        C698   1.400       .  A
C697        H702   1.083       .  S
C698        C699   1.405       .  A
C698        H703   1.083       .  S
C699        C700   1.403       .  A
C700        H704   1.083       .  S
C705        C706   1.403       .  A
C705       C1514   1.404       .  A
C705        H711   1.083       .  S
C706       C1511   1.405       .  A
C707        C708   1.396       .  A
C707       C1510   1.403   1_545  A
C707        H712   1.083       .  S
C708        C709   1.405       .  A
C708        H713   1.083       .  S
C709        C710   1.408   1_545  A
C710       C1509   1.403       .  A
C710        H714   1.083       .  S
C715        C716   1.402       .  A
C715        C720   1.402       .  A
C715        H721   1.083       .  S
C716        C717   1.405       .  A
C717        C718   1.395       .  A
C717        H722   1.083       .  S
C718        C719   1.404       .  A
C718        H723   1.083       .  S
C719        C720   1.410       .  A
C720        H724   1.083       .  S
C725        C726   1.404       .  A
C725        C730   1.402       .  A
C725        H731   1.083       .  S
C726        C727   1.399       .  A
C727        C728   1.392       .  A
C727        H732   1.083       .  S
C728        C729   1.404       .  A
C728        H733   1.082       .  S
C729        C730   1.403       .  A
C730        H734   1.083       .  S
C735        C736   1.406       .  A
C735        C740   1.407       .  A
C735        H741   1.083       .  S
C736        C737   1.398       .  A
C737        C738   1.390       .  A
C737        H742   1.084       .  S
C738        C739   1.406       .  A
C738        H743   1.083       .  S
C739        C740   1.407       .  A
C740        H744   1.082       .  S
C745        C746   1.405       .  A
C745        C750   1.405       .  A
C745        H751   1.083       .  S
C746        C747   1.397       .  A
C747        C748   1.390       .  A
C747        H752   1.084       .  S
C748        C749   1.405       .  A
C748        H753   1.082       .  S
C749        C750   1.405       .  A
C750        H754   1.083       .  S
C755        C756   1.404       .  A
C755        C760   1.402       .  A
C755        H761   1.083       .  S
C756        C757   1.400       .  A
C757        C758   1.392       .  A
C757        H762   1.083       .  S
C758        C759   1.404       .  A
C758        H763   1.083       .  S
C759        C760   1.404       .  A
C760        H764   1.083       .  S
C765        C766   1.405   1_565  A
C765        C770   1.403   1_565  A
C765        H771   1.083       .  S
C766        C767   1.399       .  A
C767        C768   1.392       .  A
C767        H772   1.084       .  S
C768        C769   1.403       .  A
C768        H773   1.082       .  S
C769        C770   1.404       .  A
C770        H774   1.083   1_545  S
C775        C776   1.405       .  A
C775        C780   1.404       .  A
C775       H1585   1.083   1_545  S
C776        C777   1.399       .  A
C777        C778   1.392       .  A
C777        H782   1.084       .  S
C778        C779   1.406       .  A
C778        H783   1.083       .  S
C779        C780   1.403       .  A
C780       H1588   1.083   1_545  S
H781       C1579   1.083       .  S
H784       C1584   1.083       .  S
C785        C786   1.406       .  A
C785        C790   1.391       .  A
C785        H791   1.082       .  S
C786        C787   1.404       .  A
C787        C788   1.405       .  A
C787        H792   1.083       .  S
C788        C789   1.406       .  A
C788        H793   1.083       .  S
C789        C790   1.398       .  A
C790        H794   1.084       .  S
C795        C796   1.398       .  A
C795        C800   1.388       .  A
C795        H801   1.084       .  S
C796        C797   1.404       .  A
C797        C798   1.405       .  A
C797        H802   1.083       .  S
C798        C799   1.408       .  A
C798        H803   1.083       .  S
C799        C800   1.405       .  A
C800        H804   1.080       .  S
N805        H837   1.038   1_545  S
N805        C809   1.352       .  A
N806       C2421   1.353       .  A
N806        C814   1.352   1_655  A
N807        H838   1.037       .  S
N807        C812   1.352       .  A
N808       C2423   1.351       .  A
N808        C816   1.351   1_655  A
C809        C817   1.385       .  A
C809        C825   1.411   1_545  A
C810        C826   1.416       .  A
C810        C818   1.388       .  A
C811        C819   1.388       .  A
C811        C828   1.419   1_545  A
C812        C827   1.413       .  A
C812        C820   1.386       .  A
C813       N2414   1.353   1_565  A
C813        C825   1.411       .  A
C813        C821   1.385       .  A
C814        C828   1.415       .  A
C814        C822   1.387   1_455  A
C815       N2416   1.351       .  A
C815        C823   1.385       .  A
C815        C826   1.412       .  A
C816        C824   1.386       .  A
C816        C827   1.410       .  A
C817        H829   1.083       .  S
C818        H830   1.082       .  S
C819        H831   1.080       .  S
C820        H832   1.082       .  S
C821       C2430   1.373       .  A
C821        H833   1.082       .  S
C822       C2429   1.371       .  A
C822        H834   1.082   1_655  S
C823       C2432   1.376       .  A
C823        H835   1.082       .  S
C824       C2431   1.373   1_455  A
C824        H836   1.082       .  S
C825       C1600   1.483       .  S
C826       C1580   1.486       .  S
C827       C1570   1.478       .  S
C828       C1593   1.486       .  S
N839        H871   1.036       .  S
N839        C844   1.354       .  A
N839        C843   1.354       .  A
N840       C2455   1.350       .  A
N840        C848   1.349       .  A
N841        H872   1.034       .  S
N841        C846   1.354       .  A
N841        C845   1.352       .  A
N842       C2457   1.350       .  A
N842        C850   1.351       .  A
C843        C851   1.389       .  A
C843        C859   1.420       .  A
C844        C860   1.416       .  A
C844        C852   1.386       .  A
C845        C853   1.386       .  A
C845        C862   1.414       .  A
C846        C861   1.420       .  A
C846        C854   1.389       .  A
C847       N2448   1.349   1_455  A
C847        C859   1.412       .  A
C847        C855   1.387       .  A
C848        C862   1.408       .  A
C848        C856   1.387       .  A
C849       N2450   1.350   1_455  A
C849        C857   1.387   1_455  A
C849        C860   1.412       .  A
C850        C858   1.386       .  A
C850        C861   1.414       .  A
C851        C852   1.373       .  A
C851        H863   1.082       .  S
C852        H864   1.082       .  S
C853        C854   1.374       .  A
C853        H865   1.082       .  S
C854        H866   1.082       .  S
C855       C2464   1.374   1_455  A
C855        H867   1.082       .  S
C856       C2463   1.370       .  A
C856        H868   1.082       .  S
C857       C2466   1.373       .  A
C857        H869   1.082   1_655  S
C858       C2465   1.374       .  A
C858        H870   1.082       .  S
C859       C1530   1.482       .  S
C860       C1550   1.482       .  S
C861       C1560   1.485       .  S
C862       C1540   1.472       .  S
C873        N891   1.357       .  A
C873        C910   1.453       .  S
C873       C1603   1.480       .  S
N874        N891   1.330       .  A
N874        N896   1.317       .  A
N874       Co911   2.098       .  S
C875        N900   1.349       .  A
C875        H920   1.081       .  S
C875        C913   1.467       .  S
H876        C917   1.081       .  S
C877        N901   1.343       .  A
C877        H906   1.082       .  S
C877        C881   1.464       .  S
Co878       N896   2.061       .  S
Co878       N886   2.070       .  S
Co878       N918   2.063       .  S
Co878       N894   2.065       .  S
Co878      Cl922   2.436       .  S
N879        C917   1.349       .  A
N879        N886   1.319       .  A
N879       Co880   2.100       .  S
Co880       N883   2.080       .  S
Co880       N900   2.094       .  S
Co880       N887   2.087       .  S
Co880      Cl922   2.464       .  S
C881        N919   1.349       .  A
C881       C1520   1.473       .  S
N882        N889   1.320       .  A
N882        N912   1.326       .  A
N882       Co915   2.091       .  S
N883        N901   1.320       .  A
N883        N919   1.322       .  A
N884        C913   1.344       .  A
N884        N894   1.319       .  A
H885        C910   1.080       .  S
N886        N907   1.320       .  A
N887        N905   1.321       .  A
N887        N892   1.325       .  A
C888        N892   1.351       .  A
C888        C916   1.466       .  S
C888       C1500   1.479       .  S
N889        C904   1.338       .  A
N889       Co911   2.086       .  S
C890        N918   1.332       .  A
C890        H924   1.081       .  S
C890        C893   1.449       .  S
C893        N914   1.355       .  A
C893       C1590   1.473       .  S
N894        N900   1.317       .  A
N895        C921   1.340       .  A
N895        N897   1.321       .  A
N895       Co911   2.083       .  S
N896        C910   1.332       .  A
N897        N925   1.324       .  A
N897       Co915   2.093       .  S
H898        C921   1.082       .  S
H899        C916   1.081       .  S
N901       Co915   2.091       .  S
N902        N914   1.331       .  A
N902        N918   1.319       .  A
N902       Co911   2.103       .  S
C903        N907   1.344       .  A
C903        C917   1.467       .  S
C903       C1563   1.476       .  S
C904        H908   1.082       .  S
C904        C923   1.463       .  S
N905        C916   1.340       .  A
N905       Co915   2.095       .  S
C909        N925   1.352       .  A
C909        C921   1.462       .  S
C909       C1490   1.478       .  S
Co911      Cl922   2.460       .  S
N912        C923   1.352       .  A
C913       C1553   1.475       .  S
Co915      Cl922   2.438       .  S
C923       C1510   1.475       .  S
C926        N944   1.356       .  A
C926        C963   1.450       .  S
C926       C1583   1.475       .  S
N927        N944   1.331       .  A
N927        N949   1.320       .  A
N927       Co964   2.105       .  S
C928        N953   1.347       .  A
C928        H973   1.081       .  S
C928        C966   1.465       .  S
H929        C970   1.081       .  S
C930        N954   1.339       .  A
C930        H959   1.081       .  S
C930        C934   1.464       .  S
Co931       N949   2.071       .  S
Co931       N939   2.056       .  S
Co931       N971   2.058       .  S
Co931       N947   2.073       .  S
Co931      Cl975   2.425       .  S
N932        C970   1.345       .  A
N932        N939   1.317       .  A
N932       Co933   2.082       .  S
Co933       N936   2.083       .  S
Co933       N953   2.092       .  S
Co933       N940   2.077       .  S
Co933      Cl975   2.468       .  S
C934        N972   1.351       .  A
C934       C1480   1.477       .  S
N935        N942   1.321       .  A
N935        N965   1.324       .  A
N935       Co968   2.086       .  S
N936        N954   1.320       .  A
N936        N972   1.324       .  A
N937        C966   1.345       .  A
N937        N947   1.319       .  A
H938        C963   1.081       .  S
N939        N960   1.316       .  A
N940        N958   1.318       .  A
N940        N945   1.324       .  A
C941        N945   1.351       .  A
C941        C969   1.463       .  S
C941       C1463   1.475       .  S
N942        C957   1.341       .  A
N942       Co964   2.088       .  S
C943        N971   1.331       .  A
C943        H977   1.080       .  S
C943        C946   1.452       .  S
C946        N967   1.357       .  A
C946       C1573   1.478       .  S
N947        N953   1.319       .  A
N948        C974   1.341       .  A
N948        N950   1.320       .  A
N948       Co964   2.088       .  S
N949        C963   1.335       .  A
N950        N978   1.319       .  A
N950       Co968   2.072       .  S
H951        C974   1.082       .  S
H952        C969   1.081       .  S
N954       Co968   2.085       .  S
N955        N967   1.330       .  A
N955        N971   1.317       .  A
N955       Co964   2.099       .  S
C956        N960   1.342       .  A
C956        C970   1.464       .  S
C956       C1543   1.466       .  S
C957        H961   1.082       .  S
C957        C976   1.463       .  S
N958        C969   1.337       .  A
N958       Co968   2.080       .  S
C962        N978   1.348       .  A
C962        C974   1.465       .  S
C962       C1450   1.472       .  S
Co964      Cl975   2.466       .  S
N965        C976   1.351       .  A
C966       C1533   1.473       .  S
Co968      Cl975   2.423       .  S
C976       C1470   1.479       .  S
N979       H1011   1.039       .  S
N979        C984   1.353       .  A
N980        C987   1.356       .  A
N980        C988   1.355       .  A
N981       H1012   1.039       .  S
N981        C986   1.355       .  A
N982        C989   1.349       .  A
N982        C990   1.349       .  A
C983        C991   1.390       .  A
C983        C999   1.418       .  A
C984       C1000   1.411       .  A
C984        C992   1.385   1_565  A
C985        C993   1.388       .  A
C985       C1002   1.418       .  A
C986       C1001   1.413       .  A
C986        C994   1.386   1_565  A
C987        C999   1.426       .  A
C987        C995   1.387       .  A
C988       C1002   1.424       .  A
C988        C996   1.386       .  A
C989        C997   1.386       .  A
C989       C1000   1.406       .  A
C990        C998   1.387       .  A
C990       C1001   1.408       .  A
C991       H1003   1.082       .  S
C992       H1004   1.082       .  S
C993       H1005   1.082       .  S
C994       H1006   1.081       .  S
C995        C996   1.380       .  A
C995       H1007   1.082       .  S
C996       H1008   1.082       .  S
C997        C998   1.371       .  A
C997       H1009   1.082       .  S
C998       H1010   1.082       .  S
C999       C1433   1.505       .  S
C1000      C1410   1.474       .  S
C1001      C1420   1.480       .  S
C1002      C1440   1.499       .  S
N1013      H1045   1.039       .  S
N1013      C1018   1.352   1_554  A
N1013      C1017   1.352       .  A
N1014      C1021   1.350       .  A
N1014      C1022   1.349       .  A
N1015      H1046   1.039       .  S
N1015      C1020   1.354   1_554  A
N1015      C1019   1.354       .  A
N1016      C1023   1.355       .  A
N1016      C1024   1.355       .  A
C1017      C1025   1.385       .  A
C1017      C1033   1.409       .  A
C1018      C1034   1.415       .  A
C1018      C1026   1.390       .  A
C1019      C1027   1.385       .  A
C1019      C1036   1.413       .  A
C1020      C1035   1.418       .  A
C1020      C1028   1.389       .  A
C1021      C1033   1.406       .  A
C1021      C1029   1.385       .  A
C1022      C1036   1.407       .  A
C1022      C1030   1.386       .  A
C1023      C1031   1.386       .  A
C1023      C1034   1.423       .  A
C1024      C1032   1.386       .  A
C1024      C1035   1.422       .  A
C1025      C1026   1.372   1_554  A
C1025      H1037   1.082       .  S
C1026      H1038   1.082       .  S
C1027      C1028   1.375   1_554  A
C1027      H1039   1.082       .  S
C1028      H1040   1.082       .  S
C1029      C1030   1.373       .  A
C1029      H1041   1.082       .  S
C1030      H1042   1.082       .  S
C1031      C1032   1.380       .  A
C1031      H1043   1.082       .  S
C1032      H1044   1.082       .  S
C1033      C1370   1.476       .  S
C1034      C1390   1.493       .  S
C1035      C1400   1.493       .  S
C1036      C1380   1.478       .  S
C1047      N1065   1.337       .  A
C1047      C1084   1.488       .  S
C1047      C1443   1.495       .  S
N1048      N1065   1.314       .  A
N1048      N1070   1.322       .  A
N1048     Co1085   2.066       .  S
C1049      N1074   1.353       .  A
C1049      H1094   1.081       .  S
C1049      C1087   1.475       .  S
H1050      C1091   1.080       .  S
C1051      N1075   1.361       .  A
C1051      H1080   1.081       .  S
C1051      C1055   1.487       .  S
Co1052     N1070   2.132       .  S
Co1052     N2668   2.145       .  S
Co1052     N1092   2.093       .  S
Co1052     N2676   2.065       .  S
Co1052    Cl1096   2.472       .  S
N1053      C1091   1.324       .  A
N1053      N1060   1.320       .  A
N1053     Co1054   2.054       .  S
Co1054     N1057   2.052       .  S
Co1054     N1074   2.105       .  S
Co1054     N1061   2.097       .  S
Co1054    Cl2704   2.420   1_455  S
C1055      N1093   1.333       .  A
C1055      C1393   1.488       .  S
N1056      N1063   1.320       .  A
N1056      N1086   1.339       .  A
N1056     Co1089   2.133       .  S
N1057      N1075   1.321       .  A
N1057      N1093   1.311       .  A
N1058      C1087   1.342       .  A
N1058      N1068   1.318       .  A
H1059      C1084   1.081       .  S
N1060      N1081   1.340       .  A
N1060     Co2660   2.134   1_455  S
N1061      N1079   1.319       .  A
N1061      N1066   1.332       .  A
C1062      N1066   1.359       .  A
C1062      C1090   1.448       .  S
C1062      C1340   1.478       .  S
N1063      C1078   1.324       .  A
N1063     Co1085   2.058       .  S
C1064      N1092   1.336       .  A
C1064      H1098   1.081       .  S
C1064      C1067   1.456       .  S
C1067      N1088   1.361       .  A
C1067      C1350   1.494       .  S
N1068      N1074   1.321       .  A
N1068     Co2660   2.074   1_455  S
N1069      C1095   1.352       .  A
N1069      N1071   1.322       .  A
N1069     Co1085   2.110       .  S
N1070      C1084   1.362       .  A
N1071      N1099   1.319       .  A
N1071     Co1089   2.075       .  S
H1072      C1095   1.081       .  S
H1073      C1090   1.081       .  S
N1075     Co2697   2.128   1_455  S
N1076      N1088   1.335       .  A
N1076      N1092   1.321       .  A
N1076     Co1085   2.106       .  S
C1077      N1081   1.370       .  A
C1077      C1091   1.442       .  S
C1077      C1430   1.497       .  S
C1078      H1082   1.080       .  S
C1078      C1097   1.443       .  S
N1079      C1090   1.328       .  A
N1079     Co2697   2.064   1_455  S
C1083      N1099   1.342       .  A
C1083      C1095   1.477       .  S
C1083      C1360   1.486       .  S
Co1085    Cl1096   2.436       .  S
N1086      C1097   1.369       .  A
C1087      C1330   1.483       .  S
Co1089     N2683   2.127       .  S
Co1089     N2687   2.065       .  S
Co1089    Cl1096   2.471       .  S
Cl1096    Co2662   2.431       .  S
C1097      C1403   1.495       .  S
N1100      H1132   1.038       .  S
N1100      C1105   1.353       .  A
N1100      C1104   1.355       .  A
N1101      C1108   1.351       .  A
N1101      C1109   1.352       .  A
N1102      H1133   1.041       .  S
N1102      C1107   1.352       .  A
N1102      C1106   1.351       .  A
N1103      C1110   1.351       .  A
N1103      C1111   1.352       .  A
C1104      C1112   1.387       .  A
C1104      C1120   1.419       .  A
C1105      C1121   1.417       .  A
C1105      C1113   1.387       .  A
C1106      C1114   1.387       .  A
C1106      C1123   1.412       .  A
C1107      C1122   1.411       .  A
C1107      C1115   1.386       .  A
C1108      C1120   1.413       .  A
C1108      C1116   1.386       .  A
C1109      C1123   1.414       .  A
C1109      C1117   1.386       .  A
C1110      C1118   1.386       .  A
C1110      C1121   1.410       .  A
C1111      C1119   1.387       .  A
C1111      C1122   1.412       .  A
C1112      C1113   1.379       .  A
C1112      H1124   1.082       .  S
C1113      H1125   1.082       .  S
C1114      C1115   1.376       .  A
C1114      H1126   1.082       .  S
C1115      H1127   1.082       .  S
C1116      C1117   1.372       .  A
C1118      C1119   1.370       .  A
C1118      H1130   1.082       .  S
C1119      H1131   1.082       .  S
C1120      C1333   1.489       .  S
C1121      C1343   1.483       .  S
C1122      C1460   1.489       .  S
C1123      C1453   1.488       .  S
N1134      H1166   1.041       .  S
N1134      C1139   1.354       .  A
N1134      C1138   1.354       .  A
N1135      C1142   1.352       .  A
N1135      C1143   1.353       .  A
N1136      H1167   1.041       .  S
N1136      C1141   1.353       .  A
N1136      C1140   1.354       .  A
N1137      C1144   1.351       .  A
N1137      C1145   1.351       .  A
C1138      C1146   1.387       .  A
C1138      C1154   1.414       .  A
C1139      C1155   1.416       .  A
C1139      C1147   1.388       .  A
C1140      C1148   1.387       .  A
C1140      C1157   1.415       .  A
C1141      C1156   1.413       .  A
C1141      C1149   1.386       .  A
C1142      C1154   1.415       .  A
C1142      C1150   1.386       .  A
C1143      C1157   1.416       .  A
C1143      C1151   1.386       .  A
C1144      C1152   1.387       .  A
C1144      C1155   1.413       .  A
C1145      C1153   1.386       .  A
C1145      C1156   1.412       .  A
C1146      C1147   1.376       .  A
C1148      C1149   1.375       .  A
C1148      H1160   1.082       .  S
C1149      H1161   1.082       .  S
C1150      C1151   1.375       .  A
C1150      H1162   1.082       .  S
C1151      H1163   1.082       .  S
C1152      C1153   1.374       .  A
C1152      H1164   1.082       .  S
C1153      H1165   1.082       .  S
C1154      C1353   1.490       .  S
C1155      C1473   1.489       .  S
C1156      C1483   1.489       .  S
C1157      C1363   1.496       .  S
N1168      H1200   1.040       .  S
N1168      C1173   1.355       .  A
N1168      C1172   1.353       .  A
N1169      C1176   1.351       .  A
N1169      C1177   1.353       .  A
N1170      H1201   1.040       .  S
N1170      C1175   1.351       .  A
N1170      C1174   1.352       .  A
N1171      C1178   1.350       .  A
N1171      C1179   1.350       .  A
C1172      C1180   1.387       .  A
C1172      C1188   1.417       .  A
C1173      C1189   1.418       .  A
C1173      C1181   1.387       .  A
C1174      C1182   1.386       .  A
C1174      C1191   1.412       .  A
C1175      C1190   1.416       .  A
C1175      C1183   1.389       .  A
C1176      C1188   1.414       .  A
C1176      C1184   1.387       .  A
C1177      C1191   1.412       .  A
C1177      C1185   1.385       .  A
C1178      C1186   1.386       .  A
C1178      C1189   1.411       .  A
C1179      C1187   1.387       .  A
C1179      C1190   1.412       .  A
C1180      C1181   1.378       .  A
C1180      H1192   1.082       .  S
C1181      H1193   1.082       .  S
C1182      C1183   1.377       .  A
C1182      H1194   1.082       .  S
C1183      H1195   1.082       .  S
C1184      C1185   1.371       .  A
C1186      C1187   1.373       .  A
C1186      H1198   1.082       .  S
C1187      H1199   1.082       .  S
C1188      C1493   1.491       .  S
C1189      C1503   1.492       .  S
C1190      C1320   1.487       .  S
C1191      C1310   1.490       .  S
N1202      H1234   1.042       .  S
N1202      C1207   1.354       .  A
N1202      C1206   1.355       .  A
N1203      C1210   1.352       .  A
N1203      C1211   1.351       .  A
N1204      H1235   1.041       .  S
N1204      C1209   1.353       .  A
N1204      C1208   1.353       .  A
N1205      C1212   1.352       .  A
N1205      C1213   1.353       .  A
C1206      C1214   1.387       .  A
C1206      C1222   1.418       .  A
C1207      C1223   1.415       .  A
C1207      C1215   1.386       .  A
C1208      C1216   1.388       .  A
C1208      C1225   1.416       .  A
C1209      C1224   1.414       .  A
C1209      C1217   1.386       .  A
C1210      C1222   1.416       .  A
C1210      C1218   1.387       .  A
C1211      C1225   1.414       .  A
C1211      C1219   1.386       .  A
C1212      C1220   1.386       .  A
C1212      C1223   1.414       .  A
C1213      C1221   1.386       .  A
C1213      C1224   1.415       .  A
C1214      C1215   1.376       .  A
C1216      C1217   1.376       .  A
C1216      H1228   1.082       .  S
C1217      H1229   1.082       .  S
C1218      C1219   1.374       .  A
C1218      H1230   1.082       .  S
C1219      H1231   1.082       .  S
C1220      C1221   1.374       .  A
C1220      H1232   1.082       .  S
C1221      H1233   1.082       .  S
C1222      C1513   1.499       .  S
C1223      C1290   1.492       .  S
C1224      C1300   1.494       .  S
C1225      C1523   1.492       .  S
C1236      N1254   1.359       .  A
C1236      C1273   1.445       .  S
C1236      C1423   1.473       .  S
N1237      N1254   1.332       .  A
N1237      N1259   1.317       .  A
N1237     Co1274   2.105       .  S
C1238      N2871   1.347       .  A
C1238      H1283   1.081       .  S
C1238      C1276   1.466       .  S
H1239      C1280   1.081       .  S
C1240      N1264   1.341       .  A
C1240      H1269   1.081       .  S
C1240      C1244   1.466       .  S
Co1241     N1259   2.048       .  S
Co1241     N1249   2.056       .  S
Co1241     N1281   2.058       .  S
Co1241     N1257   2.061       .  S
Co1241    Cl1285   2.430       .  S
N1242      C1280   1.351       .  A
N1242      N1249   1.317       .  A
N1242     Co1243   2.099       .  S
Co1243     N1246   2.079       .  S
Co1243     N1263   2.083       .  S
Co1243     N2858   2.079       .  S
Co1243    Cl1285   2.459       .  S
C1244      N1282   1.350       .  A
C1244      C1303   1.480       .  S
N1245      N1252   1.322       .  A
N1245      N1275   1.324       .  A
N1245     Co1278   2.090       .  S
N1246      N1264   1.321       .  A
N1246      N1282   1.324       .  A
N1247      C1276   1.344       .  A
N1247      N2865   1.318       .  A
H1248      C1273   1.081       .  S
N1249      N1270   1.314       .  A
N1250      N1268   1.321       .  A
N1250      N1255   1.320       .  A
N1250     Co2851   2.076   1_455  S
C1251      N1255   1.347       .  A
C1251      C1279   1.465       .  S
C1251      C1323   1.471       .  S
N1252      C1267   1.341       .  A
N1252     Co1274   2.087       .  S
C1253      N2889   1.329       .  A
C1253      H1287   1.080       .  S
C1253      C1256   1.449       .  S
C1256      N1277   1.356       .  A
C1256      C1413   1.473       .  S
N1257      N2855   1.318       .  A
N1257      N1263   1.317       .  A
N1258      C1284   1.338       .  A
N1258      N1260   1.320       .  A
N1258     Co2882   2.083   1_455  S
N1259      C1273   1.326       .  A
N1260      N1288   1.327       .  A
N1260     Co2886   2.099       .  S
H1261      C1284   1.082       .  S
H1262      C1279   1.082       .  S
N1263      C2846   1.343       .  A
N1264     Co1278   2.097       .  S
N1265      N2885   1.327       .  A
N1265      N1281   1.318       .  A
N1265     Co1274   2.089       .  S
C1266      N1270   1.340       .  A
C1266      C1280   1.473       .  S
C1266      C1383   1.476       .  S
C1267      H1271   1.082       .  S
C1267      C1286   1.463       .  S
N1268      C1279   1.343       .  A
N1268     Co2886   2.091       .  S
C1272      N1288   1.355       .  A
C1272      C1284   1.461       .  S
C1272      C1313   1.480       .  S
Co1274     N2866   2.080       .  S
Co1274    Cl1285   2.456       .  S
N1275      C1286   1.351       .  A
C1276      C1373   1.474       .  S
N1277      N2873   1.329       .  A
Co1278     N2868   2.100       .  S
Co1278     N2876   2.094       .  S
Co1278    Cl1285   2.445       .  S
N1281      C2861   1.332       .  A
C1286      C1293   1.480       .  S
C1289      C1290   1.406       .  A
C1289      H1295   1.083       .  S
C1290      C1291   1.404       .  A
C1291      H1296   1.083       .  S
C1292      C1293   1.405       .  A
C1292      H1297   1.083       .  S
C1293      C1294   1.404   1_565  A
C1294      H1298   1.083       .  S
C1299      C1300   1.405       .  A
C1299      C1304   1.400       .  A
C1299      H1305   1.083       .  S
C1300      C1301   1.405       .  A
C1301      C1302   1.398       .  A
C1301      H1306   1.083       .  S
C1302      C1303   1.405       .  A
C1302      H1307   1.082       .  S
C1303      C1304   1.405       .  A
C1304      H1308   1.083       .  S
C1309      C1310   1.407       .  A
C1309      H1315   1.083       .  S
C1310      C1311   1.403       .  A
C1311      H1316   1.083       .  S
C1312      C1313   1.406   1_545  A
C1312      H1317   1.083       .  S
C1313      C1314   1.403       .  A
C1314      H1318   1.083       .  S
C1319      C1320   1.406       .  A
C1319      C1324   1.399       .  A
C1319      H1325   1.083       .  S
C1320      C1321   1.402       .  A
C1321      C1322   1.393       .  A
C1321      H1326   1.083       .  S
C1322      C1323   1.405       .  A
C1322      H1327   1.083       .  S
C1323      C1324   1.401       .  A
C1324      H1328   1.083       .  S
C1329      C1330   1.405       .  A
C1329      C1334   1.407       .  A
C1329      H1335   1.083       .  S
C1330      C1331   1.408       .  A
C1331      H1336   1.083       .  S
C1332      C1333   1.399       .  A
C1332      H1337   1.083       .  S
C1334      H1338   1.083       .  S
C1339      C1340   1.407       .  A
C1339      C1344   1.390       .  A
C1339      H2953   1.082       .  S
C1340      C1341   1.404       .  A
C1341      C1342   1.405       .  A
C1341      H1346   1.083       .  S
C1342      C1343   1.407       .  A
C1342      H1347   1.083       .  S
C1343      C1344   1.397       .  A
C1344      H2956   1.084       .  S
H1345      C2947   1.080       .  S
H1348      C2952   1.084       .  S
C1349      C1350   1.409       .  A
C1349      C1354   1.397       .  A
C1349      H1355   1.082       .  S
C1351      C1352   1.407   1_545  A
C1351      H1356   1.083       .  S
C1352      C1353   1.407       .  A
C1352      H1357   1.083       .  S
C1354      H1358   1.083       .  S
C1359      C1360   1.403       .  A
C1359      C1364   1.405       .  A
C1359      H1365   1.082       .  S
C1360      C1361   1.410       .  A
C1361      C1362   1.398       .  A
C1361      H1366   1.083       .  S
C1362      C1363   1.402       .  A
C1362      H1367   1.083       .  S
C1363      C1364   1.408       .  A
C1364      H1368   1.083       .  S
C1369      C1370   1.397       .  A
C1369      C1374   1.390       .  A
C1369      H1375   1.084       .  S
C1370      C1371   1.403       .  A
C1371      C1372   1.402       .  A
C1371      H1376   1.083       .  S
C1372      C1373   1.405       .  A
C1372      H1377   1.082       .  S
C1373      C1374   1.406       .  A
C1374      H1378   1.082       .  S
C1379      C1380   1.406       .  A
C1379      C1384   1.406       .  A
C1379      H1385   1.083       .  S
C1380      C1381   1.395       .  A
C1381      C1382   1.387       .  A
C1381      H1386   1.084       .  S
C1382      C1383   1.407       .  A
C1382      H1387   1.083       .  S
C1383      C1384   1.405       .  A
C1384      H1388   1.082       .  S
C1389      C1390   1.395       .  A
C1389      C1394   1.391       .  A
C1389      H1395   1.084       .  S
C1390      C1391   1.414       .  A
C1391      C1392   1.410       .  A
C1391      H1396   1.083       .  S
C1392      C1393   1.403       .  A
C1392      H1397   1.082       .  S
C1393      C1394   1.414       .  A
C1394      H1398   1.083       .  S
C1399      C1400   1.395       .  A
C1399      C1404   1.392       .  A
C1399      H1405   1.084       .  S
C1400      C1401   1.411       .  A
C1401      C1402   1.413       .  A
C1401      H1406   1.083       .  S
C1402      C1403   1.406       .  A
C1402      H1407   1.083       .  S
C1403      C1404   1.413       .  A
C1404      H1408   1.080       .  S
C1409      C1410   1.403       .  A
C1409      C1414   1.401       .  A
C1409      H1415   1.083   1_565  S
C1410      C1411   1.396       .  A
C1411      C1412   1.388       .  A
C1411      H1416   1.084       .  S
C1412      C1413   1.407       .  A
C1412      H1417   1.080       .  S
C1413      C1414   1.404       .  A
C1414      H1418   1.083       .  S
C1419      C1420   1.397       .  A
C1419      C1424   1.387       .  A
C1419      H1425   1.084       .  S
C1420      C1421   1.406       .  A
C1421      C1422   1.404       .  A
C1421      H1426   1.083   1_565  S
C1422      C1423   1.403       .  A
C1422      H1427   1.083   1_565  S
C1423      C1424   1.407       .  A
C1424      H1428   1.082       .  S
C1429      C1430   1.403       .  A
C1429      C1434   1.412       .  A
C1429      H1435   1.083       .  S
C1430      C1431   1.414       .  A
C1431      C1432   1.393       .  A
C1431      H1436   1.080       .  S
C1432      C1433   1.397       .  A
C1432      H1437   1.083       .  S
C1433      C1434   1.416       .  A
C1439      C1440   1.414       .  A
C1439      C1444   1.414       .  A
C1439      H1445   1.083       .  S
C1440      C1441   1.397       .  A
C1441      C1442   1.393       .  A
C1441      H1446   1.084       .  S
C1442      C1443   1.413       .  A
C1442      H1447   1.083       .  S
C1443      C1444   1.405       .  A
C1444      H1448   1.082       .  S
C1449      C1450   1.406       .  A
C1449      C1454   1.393       .  A
C1449      H1455   1.083       .  S
C1451      C1452   1.401       .  A
C1451      H1456   1.083       .  S
C1452      C1453   1.407       .  A
C1452      H1457   1.083       .  S
C1454      H1458   1.083       .  S
C1459      C1460   1.406       .  A
C1459      C1464   1.398       .  A
C1459      H1465   1.083       .  S
C1460      C1461   1.403       .  A
C1461      C1462   1.394       .  A
C1461      H1466   1.083       .  S
C1462      C1463   1.406       .  A
C1462      H1467   1.082       .  S
C1463      C1464   1.402       .  A
C1464      H1468   1.083       .  S
C1469      C1470   1.404       .  A
C1469      H1475   1.083       .  S
C1470      C1471   1.406       .  A
C1471      H1476   1.083       .  S
C1472      C1473   1.403       .  A
C1472      H1477   1.083       .  S
C1473      C1474   1.406       .  A
C1474      H1478   1.083       .  S
C1479      C1480   1.403       .  A
C1479      C1484   1.398       .  A
C1479      H1485   1.083       .  S
C1480      C1481   1.406       .  A
C1481      C1482   1.398       .  A
C1481      H1486   1.082       .  S
C1482      C1483   1.404       .  A
C1482      H1487   1.083       .  S
C1483      C1484   1.404       .  A
C1484      H1488   1.083       .  S
C1489      C1490   1.405       .  A
C1489      C1494   1.398   1_565  A
C1489      H1495   1.083       .  S
C1491      C1492   1.397       .  A
C1491      H1496   1.083       .  S
C1492      C1493   1.405       .  A
C1492      H1497   1.083       .  S
C1494      H1498   1.083       .  S
C1499      C1500   1.405       .  A
C1499      C1504   1.396       .  A
C1499      H1505   1.082       .  S
C1500      C1501   1.405       .  A
C1501      C1502   1.402       .  A
C1501      H1506   1.083       .  S
C1502      C1503   1.405       .  A
C1502      H1507   1.083       .  S
C1503      C1504   1.405       .  A
C1504      H1508   1.083       .  S
C1509      C1510   1.403       .  A
C1509      H1515   1.083       .  S
C1511      C1512   1.397       .  A
C1511      H1516   1.083       .  S
C1512      C1513   1.405       .  A
C1512      H1517   1.083       .  S
C1513      C1514   1.409       .  A
C1514      H1518   1.083       .  S
C1519      C1520   1.402       .  A
C1519      C1524   1.402       .  A
C1519      H1525   1.083       .  S
C1520      C1521   1.404       .  A
C1521      C1522   1.395       .  A
C1521      H1526   1.083       .  S
C1522      C1523   1.404       .  A
C1522      H1527   1.083       .  S
C1523      C1524   1.407       .  A
C1524      H1528   1.083       .  S
C1529      C1530   1.405       .  A
C1529      C1534   1.402       .  A
C1529      H1535   1.083       .  S
C1530      C1531   1.400       .  A
C1531      C1532   1.392       .  A
C1531      H1536   1.084       .  S
C1532      C1533   1.404       .  A
C1532      H1537   1.082       .  S
C1533      C1534   1.404       .  A
C1534      H1538   1.083       .  S
C1539      C1540   1.403       .  A
C1539      C1544   1.400       .  A
C1539      H1545   1.083       .  S
C1540      C1541   1.396       .  A
C1541      C1542   1.387       .  A
C1541      H1546   1.084       .  S
C1542      C1543   1.405       .  A
C1542      H1547   1.083       .  S
C1543      C1544   1.404       .  A
C1544      H1548   1.083       .  S
C1549      C1550   1.406       .  A
C1549      C1554   1.404       .  A
C1549      H1555   1.083       .  S
C1550      C1551   1.398       .  A
C1551      C1552   1.391       .  A
C1551      H1556   1.084       .  S
C1552      C1553   1.405       .  A
C1552      H1557   1.083       .  S
C1553      C1554   1.405       .  A
C1554      H1558   1.083       .  S
C1559      C1560   1.405       .  A
C1559      C1564   1.403       .  A
C1559      H1565   1.083       .  S
C1560      C1561   1.401       .  A
C1561      C1562   1.396       .  A
C1561      H1566   1.083       .  S
C1562      C1563   1.406       .  A
C1562      H1567   1.083       .  S
C1563      C1564   1.403       .  A
C1564      H1568   1.083       .  S
C1569      C1570   1.404       .  A
C1569      C1574   1.403       .  A
C1569      H1575   1.083       .  S
C1570      C1571   1.396       .  A
C1571      C1572   1.389       .  A
C1571      H1576   1.084       .  S
C1572      C1573   1.407       .  A
C1572      H1577   1.080       .  S
C1573      C1574   1.405       .  A
C1574      H1578   1.083       .  S
C1579      C1580   1.407       .  A
C1579      C1584   1.405       .  A
C1580      C1581   1.400       .  A
C1581      C1582   1.394       .  A
C1581      H1586   1.083       .  S
C1582      C1583   1.404       .  A
C1582      H1587   1.083       .  S
C1583      C1584   1.404       .  A
C1589      C1590   1.404       .  A
C1589      C1594   1.390       .  A
C1589      H1595   1.083       .  S
C1590      C1591   1.404       .  A
C1591      C1592   1.405   1_565  A
C1591      H1596   1.083   1_565  S
C1592      C1593   1.408   1_545  A
C1592      H1597   1.083       .  S
C1593      C1594   1.399       .  A
C1594      H1598   1.084       .  S
C1599      C1600   1.399       .  A
C1599      C1604   1.390       .  A
C1599      H1605   1.084       .  S
C1600      C1601   1.404       .  A
C1601      C1602   1.404       .  A
C1601      H1606   1.083   1_565  S
C1602      C1603   1.406       .  A
C1602      H1607   1.083       .  S
C1603      C1604   1.407       .  A
C1604      H1608   1.080       .  S
N1609      H1641   1.036       .  S
N1609      C2418   1.354       .  A
N1609      C1613   1.353       .  A
N1610      C1618   1.351       .  A
N1611      H1642   1.036   1_545  S
N1611      C1616   1.357       .  A
N1611      C2419   1.355       .  A
N1612      C1620   1.350       .  A
C1613      C1621   1.389       .  A
C1613      C1629   1.418       .  A
C1614      N2413   1.354       .  A
C1614      C1630   1.417       .  A
C1614      C1622   1.389       .  A
C1615      N2415   1.355       .  A
C1615      C1623   1.386       .  A
C1615      C1632   1.417       .  A
C1616      C1631   1.421       .  A
C1616      C1624   1.387       .  A
C1617      C1629   1.412       .  A
C1617      C1625   1.387       .  A
C1618      C1632   1.414       .  A
C1618      C1626   1.388       .  A
C1619      C1627   1.386       .  A
C1619      C1630   1.409       .  A
C1620      C1628   1.387       .  A
C1620      C1631   1.413       .  A
C1621      C2426   1.374       .  A
C1621      H1633   1.082       .  S
C1622      C2425   1.373       .  A
C1622      H1634   1.082       .  S
C1623      C2428   1.375       .  A
C1623      H1635   1.081       .  S
C1624      C2427   1.374       .  A
C1624      H1636   1.082       .  S
C1625      H1637   1.082       .  S
C1626      H1638   1.082       .  S
C1627      H1639   1.082       .  S
C1628      H1640   1.082       .  S
C1629      C2404   1.479       .  S
C1630      C2384   1.480       .  S
C1631      C2374   1.488       .  S
C1632      C2397   1.485       .  S
N1643      H1675   1.037       .  S
N1643      C1648   1.355       .  A
N1643      C1647   1.353       .  A
N1644      C1652   1.349       .  A
N1645      H1676   1.037       .  S
N1645      C1650   1.353       .  A
N1645      C1649   1.354       .  A
N1646      C1654   1.350       .  A
C1647      C1655   1.387       .  A
C1647      C1663   1.416       .  A
C1648      C1664   1.419       .  A
C1648      C1656   1.388       .  A
C1649      C1657   1.390       .  A
C1649      C1666   1.418       .  A
C1650      C1665   1.412       .  A
C1650      C1658   1.385       .  A
C1651      C1663   1.413       .  A
C1651      C1659   1.387       .  A
C1652      C1666   1.409       .  A
C1652      C1660   1.386       .  A
C1653      C1661   1.386       .  A
C1653      C1664   1.411       .  A
C1654      C1662   1.385       .  A
C1654      C1665   1.408       .  A
C1655      C1656   1.374       .  A
C1655      H1667   1.082       .  S
C1656      H1668   1.082       .  S
C1657      C1658   1.371       .  A
C1657      H1669   1.082       .  S
C1658      H1670   1.083       .  S
C1659      H1671   1.082       .  S
C1660      H1672   1.082       .  S
C1661      H1673   1.082       .  S
C1662      H1674   1.082       .  S
C1663      C2334   1.484       .  S
C1664      C2354   1.483       .  S
C1665      C2364   1.479       .  S
C1666      C2344   1.479       .  S
C1677      N1695   1.353       .  A
C1677      C1714   1.451       .  S
C1677      C2407   1.470       .  S
N1678      N1695   1.329       .  A
N1678      N1700   1.319       .  A
N1678     Co1715   2.093       .  S
C1679      N1704   1.349       .  A
C1679      H1724   1.081       .  S
C1679      C1717   1.467       .  S
H1680      C1721   1.081       .  S
C1681      N1705   1.343       .  A
C1681      H1710   1.082       .  S
C1681      C1685   1.465       .  S
Co1682     N1700   2.067       .  S
Co1682     N1690   2.065       .  S
Co1682     N1722   2.053       .  S
Co1682     N1698   2.065       .  S
Co1682    Cl1726   2.432       .  S
N1683      C1721   1.346       .  A
N1683      N1690   1.317       .  A
N1683     Co1684   2.090       .  S
Co1684     N1687   2.078       .  S
Co1684     N1704   2.097       .  S
Co1684     N1691   2.083       .  S
Co1684    Cl1726   2.461       .  S
C1685      N1723   1.349       .  A
C1685      C2324   1.473       .  S
N1686      N1693   1.321       .  A
N1686      N1716   1.326       .  A
N1686     Co1719   2.088       .  S
N1687      N1705   1.320       .  A
N1687      N1723   1.321       .  A
N1688      C1717   1.342       .  A
N1688      N1698   1.319       .  A
H1689      C1714   1.081       .  S
N1690      N1711   1.319       .  A
N1691      N1709   1.321       .  A
N1691      N1696   1.324       .  A
C1692      N1696   1.351       .  A
C1692      C1720   1.464       .  S
C1692      C2304   1.478       .  S
N1693      C1708   1.338       .  A
N1693     Co1715   2.087       .  S
C1694      N1722   1.329       .  A
C1694      H1728   1.081       .  S
C1694      C1697   1.448       .  S
C1697      N1718   1.358       .  A
C1697      C2394   1.477       .  S
N1698      N1704   1.318       .  A
N1699      C1725   1.336       .  A
N1699      N1701   1.321       .  A
N1699     Co1715   2.075       .  S
N1700      C1714   1.333       .  A
N1701      N1729   1.325       .  A
N1701     Co1719   2.092       .  S
H1702      C1725   1.081       .  S
H1703      C1720   1.081       .  S
N1705     Co1719   2.093       .  S
N1706      N1718   1.332       .  A
N1706      N1722   1.317       .  A
N1706     Co1715   2.104       .  S
C1707      N1711   1.345       .  A
C1707      C1721   1.466       .  S
C1707      C2367   1.475       .  S
C1708      H1712   1.082       .  S
C1708      C1727   1.462       .  S
N1709      C1720   1.339       .  A
N1709     Co1719   2.089       .  S
C1713      N1729   1.353       .  A
C1713      C1725   1.459       .  S
C1713      C2294   1.475       .  S
Co1715    Cl1726   2.456       .  S
N1716      C1727   1.352       .  A
C1717      C2357   1.470       .  S
Co1719    Cl1726   2.443       .  S
C1727      C2314   1.474       .  S
C1730      N1748   1.353       .  A
C1730      C1767   1.449       .  S
C1730      C2387   1.469       .  S
N1731      N1748   1.329       .  A
N1731      N1753   1.319       .  A
N1731     Co1768   2.093       .  S
C1732      N1757   1.347       .  A
C1732      H1777   1.081       .  S
C1732      C1770   1.468       .  S
H1733      C1774   1.081       .  S
C1734      N1758   1.340       .  A
C1734      H1763   1.081       .  S
C1734      C1738   1.465       .  S
Co1735     N1753   2.069       .  S
Co1735     N1743   2.065       .  S
Co1735     N1775   2.067       .  S
Co1735     N1751   2.069       .  S
Co1735    Cl1779   2.427       .  S
N1736      C1774   1.347       .  A
N1736      N1743   1.318       .  A
N1736     Co1737   2.088       .  S
Co1737     N1740   2.082       .  S
Co1737     N1757   2.093       .  S
Co1737     N1744   2.079       .  S
Co1737    Cl1779   2.467       .  S
C1738      N1776   1.350       .  A
C1738      C2284   1.478       .  S
N1739      N1746   1.321       .  A
N1739      N1769   1.323       .  A
N1739     Co1772   2.084       .  S
N1740      N1758   1.320       .  A
N1740      N1776   1.324       .  A
N1741      C1770   1.345       .  A
N1741      N1751   1.318       .  A
H1742      C1767   1.081       .  S
N1743      N1764   1.318       .  A
N1744      N1762   1.319       .  A
N1744      N1749   1.323       .  A
C1745      N1749   1.351       .  A
C1745      C1773   1.462       .  S
C1745      C2267   1.471       .  S
N1746      C1761   1.343       .  A
N1746     Co1768   2.092       .  S
C1747      N1775   1.334       .  A
C1747      H1781   1.081       .  S
C1747      C1750   1.450       .  S
C1750      N1771   1.358       .  A
C1750      C2377   1.480       .  S
N1751      N1757   1.318       .  A
N1752      C1778   1.342       .  A
N1752      N1754   1.320       .  A
N1752     Co1768   2.082       .  S
N1753      C1767   1.334       .  A
N1754      N1782   1.319       .  A
N1754     Co1772   2.079       .  S
H1755      C1778   1.082       .  S
H1756      C1773   1.082       .  S
N1758     Co1772   2.088       .  S
N1759      N1771   1.333       .  A
N1759      N1775   1.319       .  A
N1759     Co1768   2.111       .  S
C1760      N1764   1.344       .  A
C1760      C1774   1.464       .  S
C1760      C2347   1.470       .  S
C1761      H1765   1.082       .  S
C1761      C1780   1.465       .  S
N1762      C1773   1.336       .  A
N1762     Co1772   2.076       .  S
C1766      N1782   1.349       .  A
C1766      C1778   1.465       .  S
C1766      C2254   1.476       .  S
Co1768    Cl1779   2.469       .  S
N1769      C1780   1.350       .  A
C1770      C2337   1.478       .  S
Co1772    Cl1779   2.422       .  S
C1780      C2274   1.480       .  S
N1783      H1815   1.039       .  S
N1783      C1788   1.353       .  A
N1783      C2591   1.355   1_554  A
N1784      C1791   1.355       .  A
N1784      C1792   1.354       .  A
N1785      H1816   1.036       .  S
N1785      C1790   1.356       .  A
N1785      C2593   1.355   1_554  A
N1786      C1793   1.351       .  A
N1786      C1794   1.351       .  A
C1787      N2587   1.354   1_546  A
C1787      C1795   1.390       .  A
C1787      C1803   1.419       .  A
C1788      C1804   1.411       .  A
C1788      C1796   1.385       .  A
C1789      N2589   1.352   1_546  A
C1789      C1797   1.390       .  A
C1789      C1806   1.417       .  A
C1790      C1805   1.418       .  A
C1790      C1798   1.386       .  A
C1791      C1803   1.421       .  A
C1791      C1799   1.385       .  A
C1792      C1806   1.422       .  A
C1792      C1800   1.387       .  A
C1793      C1801   1.385       .  A
C1793      C1804   1.409       .  A
C1794      C1802   1.387       .  A
C1794      C1805   1.413       .  A
C1795      C2600   1.370   1_556  A
C1795      H1807   1.082       .  S
C1796      C2599   1.372   1_554  A
C1796      H1808   1.082       .  S
C1797      C2602   1.371   1_556  A
C1797      H1809   1.082       .  S
C1798      C2601   1.372   1_554  A
C1798      H1810   1.081       .  S
C1799      C1800   1.378       .  A
C1799      H1811   1.082       .  S
C1800      H1812   1.082       .  S
C1801      C1802   1.372       .  A
C1801      H1813   1.082       .  S
C1802      H1814   1.082       .  S
C1803      C2237   1.491       .  S
C1804      C2214   1.480       .  S
C1805      C2224   1.486       .  S
C1806      C2244   1.487       .  S
N1817      H1849   1.038       .  S
N1817      C1822   1.354   1_554  A
N1817      C1821   1.354       .  A
N1818      C1825   1.350       .  A
N1818      C1826   1.350       .  A
N1819      H1850   1.037       .  S
N1819      C1824   1.356   1_554  A
N1819      C1823   1.356       .  A
N1820      C1827   1.357       .  A
N1820      C1828   1.357       .  A
C1821      C1829   1.385       .  A
C1821      C1837   1.412       .  A
C1822      C1838   1.419       .  A
C1822      C1830   1.390       .  A
C1823      C1831   1.385       .  A
C1823      C1840   1.416       .  A
C1824      C1839   1.422       .  A
C1824      C1832   1.390       .  A
C1825      C1837   1.408       .  A
C1825      C1833   1.386       .  A
C1826      C1840   1.408       .  A
C1826      C1834   1.386       .  A
C1827      C1835   1.386       .  A
C1827      C1838   1.427       .  A
C1828      C1836   1.386       .  A
C1828      C1839   1.425       .  A
C1829      C1830   1.371   1_554  A
C1829      H1841   1.083       .  S
C1830      H1842   1.082       .  S
C1831      C1832   1.371   1_554  A
C1831      H1843   1.082       .  S
C1832      H1844   1.082       .  S
C1833      C1834   1.373       .  A
C1833      H1845   1.082       .  S
C1834      H1846   1.082       .  S
C1835      C1836   1.380       .  A
C1835      H1847   1.082       .  S
C1836      H1848   1.082       .  S
C1837      C2174   1.479       .  S
C1838      C2194   1.499       .  S
C1839      C2204   1.498       .  S
C1840      C2184   1.481       .  S
C1851      N1869   1.335       .  A
C1851      C1888   1.483       .  S
C1851      C2247   1.482       .  S
N1852      N1869   1.311       .  A
N1852      N1874   1.322       .  A
N1852     Co1889   2.060       .  S
C1853      N1878   1.352       .  A
C1853      H1898   1.081       .  S
C1853      C1891   1.474       .  S
H1854      C1895   1.081       .  S
C1855      N1879   1.363       .  A
C1855      H1884   1.081       .  S
C1855      C1859   1.490       .  S
Co1856     N1874   2.119       .  S
Co1856     N1896   2.072       .  S
Co1856    Cl1900   2.470       .  S
N1857      C1895   1.325       .  A
N1857      N1864   1.321       .  A
N1857     Co1858   2.054       .  S
Co1858     N1861   2.059       .  S
Co1858     N1878   2.102       .  S
Co1858     N1865   2.102       .  S
C1859      N1897   1.336       .  A
C1859      C2197   1.495       .  S
N1860      N1867   1.320       .  A
N1860      N1890   1.340       .  A
N1860     Co1893   2.128       .  S
N1861      N1879   1.321       .  A
N1861      N1897   1.314       .  A
N1862      C1891   1.341       .  A
N1862      N1872   1.316       .  A
H1863      C1888   1.081       .  S
N1864      N1885   1.339       .  A
N1865      N1883   1.319       .  A
N1865      N1870   1.332       .  A
C1866      N1870   1.361       .  A
C1866      C1894   1.450       .  S
C1866      C2144   1.482       .  S
N1867      C1882   1.327       .  A
N1867     Co1889   2.065       .  S
C1868      N1896   1.330       .  A
C1868      H1902   1.081       .  S
C1868      C1871   1.450       .  S
C1871      N1892   1.362       .  A
C1871      C2154   1.487       .  S
N1872      N1878   1.321       .  A
N1873      C1899   1.355       .  A
N1873      N1875   1.321       .  A
N1873     Co1889   2.114       .  S
N1874      C1888   1.359       .  A
N1875      N1903   1.315       .  A
N1875     Co1893   2.065       .  S
H1876      C1899   1.081       .  S
H1877      C1894   1.080       .  S
N1880      N1892   1.335       .  A
N1880      N1896   1.320       .  A
N1880     Co1889   2.108       .  S
C1881      N1885   1.368       .  A
C1881      C1895   1.440       .  S
C1881      C2234   1.490       .  S
C1882      H1886   1.082       .  S
C1882      C1901   1.444       .  S
N1883      C1894   1.328       .  A
C1887      N1903   1.339       .  A
C1887      C1899   1.479       .  S
C1887      C2164   1.483       .  S
Co1889    Cl1900   2.428       .  S
N1890      C1901   1.368       .  A
C1891      C2134   1.479       .  S
Co1893    Cl1900   2.470       .  S
C1901      C2207   1.495       .  S
N1904      H1936   1.038       .  S
N1904      C1909   1.353       .  A
N1904      C1908   1.354       .  A
N1905      C1912   1.352       .  A
N1905      C1913   1.352       .  A
N1906      H1937   1.040       .  S
N1906      C1911   1.352       .  A
N1906      C1910   1.351       .  A
N1907      C1914   1.350       .  A
N1907      C1915   1.350       .  A
C1908      C1916   1.387       .  A
C1908      C1924   1.417       .  A
C1909      C1925   1.417       .  A
C1909      C1917   1.387       .  A
C1910      C1918   1.387       .  A
C1910      C1927   1.411       .  A
C1911      C1926   1.412       .  A
C1911      C1919   1.387       .  A
C1912      C1924   1.413       .  A
C1912      C1920   1.387       .  A
C1913      C1927   1.412       .  A
C1913      C1921   1.386       .  A
C1914      C1922   1.387       .  A
C1914      C1925   1.411       .  A
C1915      C1923   1.385       .  A
C1915      C1926   1.409       .  A
C1916      C1917   1.379       .  A
C1916      H1928   1.082       .  S
C1917      H1929   1.082       .  S
C1918      C1919   1.375       .  A
C1918      H1930   1.082       .  S
C1919      H1931   1.082       .  S
C1920      C1921   1.370       .  A
C1920      H2736   1.082       .  S
C1921      H2737   1.082       .  S
C1922      C1923   1.371       .  A
C1922      H1934   1.082       .  S
C1923      H1935   1.082       .  S
C1924      C2137   1.488       .  S
C1925      C2147   1.484       .  S
C1926      C2264   1.484       .  S
C1927      C2257   1.485       .  S
H1932      C2724   1.082   1_545  S
H1933      C2725   1.082   1_545  S
N1938      H1970   1.040       .  S
N1938      C1943   1.355       .  A
N1938      C1942   1.354       .  A
N1939      C1946   1.354       .  A
N1939      C1947   1.355       .  A
N1940      H1971   1.041       .  S
N1940      C1945   1.354       .  A
N1940      C1944   1.354       .  A
N1941      C1948   1.351       .  A
N1941      C1949   1.351       .  A
C1942      C1950   1.387       .  A
C1942      C1958   1.414       .  A
C1943      C1959   1.417       .  A
C1943      C1951   1.387       .  A
C1944      C1952   1.387       .  A
C1944      C1961   1.414       .  A
C1945      C1960   1.414       .  A
C1945      C1953   1.387       .  A
C1946      C1958   1.418       .  A
C1946      C1954   1.386       .  A
C1947      C1961   1.420       .  A
C1947      C1955   1.387       .  A
C1948      C1956   1.387       .  A
C1948      C1959   1.413       .  A
C1949      C1957   1.386       .  A
C1949      C1960   1.412       .  A
C1950      C1951   1.375       .  A
C1950      H2766   1.082       .  S
C1951      H2767   1.082       .  S
C1952      C1953   1.373       .  A
C1952      H1964   1.082       .  S
C1953      H1965   1.082       .  S
C1954      C1955   1.375       .  A
C1954      H1966   1.082       .  S
C1955      H1967   1.082       .  S
C1956      C1957   1.374       .  A
C1956      H1968   1.082       .  S
C1957      H1969   1.082       .  S
C1958      C2157   1.489       .  S
C1959      C2277   1.492       .  S
C1960      C2287   1.489       .  S
C1961      C2167   1.496       .  S
H1962      C2754   1.082   1_545  S
H1963      C2755   1.082   1_545  S
N1972      H2004   1.042       .  S
N1972      C1977   1.353       .  A
N1972      C1976   1.351       .  A
N1973      C1980   1.351       .  A
N1973      C1981   1.352       .  A
N1974      H2005   1.041       .  S
N1974      C1979   1.353       .  A
N1974      C1978   1.353       .  A
N1975      C1982   1.350       .  A
N1975      C1983   1.349       .  A
C1976      C1984   1.387       .  A
C1976      C1992   1.412       .  A
C1977      C1993   1.412       .  A
C1977      C1985   1.386       .  A
C1978      C1986   1.388       .  A
C1978      C1995   1.419       .  A
C1979      C1994   1.418       .  A
C1979      C1987   1.387       .  A
C1980      C1992   1.411       .  A
C1980      C1988   1.385       .  A
C1981      C1995   1.416       .  A
C1981      C1989   1.388       .  A
C1982      C1990   1.384       .  A
C1982      C1993   1.407       .  A
C1983      C1991   1.388       .  A
C1983      C1994   1.412       .  A
C1984      C1985   1.377       .  A
C1984      H1996   1.082       .  S
C1985      H1997   1.082       .  S
C1986      C1987   1.380       .  A
C1986      H1998   1.082       .  S
C1987      H1999   1.082       .  S
C1988      C1989   1.374       .  A
C1988      H2804   1.082   1_545  S
C1989      H2805   1.082   1_545  S
C1990      C1991   1.372       .  A
C1990      H2002   1.082       .  S
C1991      H2003   1.082       .  S
C1992      C2297   1.488       .  S
C1993      C2307   1.489       .  S
C1994      C2124   1.490       .  S
C1995      C2114   1.497       .  S
H2000      C2792   1.082       .  S
H2001      C2793   1.082       .  S
N2006      H2038   1.042       .  S
N2006      C2011   1.352       .  A
N2006      C2010   1.354       .  A
N2007      C2014   1.352       .  A
N2007      C2015   1.350       .  A
N2008      H2039   1.042       .  S
N2008      C2013   1.352       .  A
N2008      C2012   1.352       .  A
N2009      C2016   1.351       .  A
N2009      C2017   1.353       .  A
C2010      C2018   1.387       .  A
C2010      C2026   1.415       .  A
C2011      C2027   1.414       .  A
C2011      C2019   1.387       .  A
C2012      C2020   1.388       .  A
C2012      C2029   1.414       .  A
C2013      C2028   1.412       .  A
C2013      C2021   1.386       .  A
C2014      C2026   1.413       .  A
C2014      C2022   1.385       .  A
C2015      C2029   1.414       .  A
C2015      C2023   1.387       .  A
C2016      C2024   1.387       .  A
C2016      C2027   1.415       .  A
C2017      C2025   1.385       .  A
C2017      C2028   1.413       .  A
C2018      C2019   1.377       .  A
C2018      H2834   1.082       .  S
C2019      H2835   1.082       .  S
C2020      C2021   1.376       .  A
C2020      H2032   1.082       .  S
C2021      H2033   1.082       .  S
C2022      C2023   1.375       .  A
C2022      H2034   1.082       .  S
C2023      H2035   1.082       .  S
C2024      C2025   1.375       .  A
C2024      H2036   1.082       .  S
C2025      H2037   1.082       .  S
C2026      C2317   1.495       .  S
C2027      C2094   1.491       .  S
C2028      C2104   1.493       .  S
C2029      C2327   1.490       .  S
H2030      C2822   1.082       .  S
H2031      C2823   1.082       .  S
C2040      N2058   1.357       .  A
C2040      C2077   1.449       .  S
C2040      C2227   1.477       .  S
N2041      N2058   1.332       .  A
N2041      N2063   1.318       .  A
N2041     Co2078   2.101       .  S
C2042      H2087   1.081       .  S
C2042      C2080   1.467       .  S
H2043      C2084   1.081       .  S
C2044      N2068   1.340       .  A
C2044      H2073   1.081       .  S
C2044      C2048   1.465       .  S
Co2045     N2063   2.062       .  S
Co2045     N2053   2.059       .  S
Co2045     N2085   2.059   1_655  S
Co2045     N2061   2.066   1_655  S
Co2045    Cl2089   2.429       .  S
N2046      C2084   1.352       .  A
N2046      N2053   1.318       .  A
N2046     Co2047   2.103       .  S
Co2047     N2050   2.078       .  S
Co2047     N2067   2.079   1_655  S
Co2047    Cl2089   2.459       .  S
C2048      N2086   1.351       .  A
C2048      C2107   1.479       .  S
N2049      N2056   1.321       .  A
N2049      N2079   1.322       .  A
N2049     Co2082   2.087   1_655  S
N2050      N2068   1.320       .  A
N2050      N2086   1.323       .  A
N2051      C2080   1.343       .  A
H2052      C2077   1.081       .  S
N2053      N2074   1.315       .  A
N2054      N2072   1.321       .  A
N2054      N2059   1.318       .  A
C2055      N2059   1.345       .  A
C2055      C2083   1.470       .  S
C2055      C2127   1.473       .  S
N2056      C2071   1.342       .  A
N2056     Co2078   2.088       .  S
C2057      H2091   1.080       .  S
C2057      C2060   1.453       .  S
C2060      N2081   1.356       .  A
C2060      C2217   1.478       .  S
N2061      N2067   1.316       .  A
N2062      C2088   1.337       .  A
N2062      N2064   1.320       .  A
N2063      C2077   1.331       .  A
N2064      N2092   1.328       .  A
H2065      C2088   1.082       .  S
H2066      C2083   1.082       .  S
N2068     Co2082   2.090   1_655  S
N2069      N2085   1.318       .  A
N2069     Co2078   2.090   1_455  S
C2070      N2074   1.341       .  A
C2070      C2084   1.472       .  S
C2070      C2187   1.477       .  S
C2071      H2075   1.082       .  S
C2071      C2090   1.464       .  S
N2072      C2083   1.346       .  A
C2076      N2092   1.356       .  A
C2076      C2088   1.460       .  S
C2076      C2117   1.480       .  S
Co2078    Cl2089   2.459       .  S
N2079      C2090   1.351       .  A
C2080      C2177   1.475       .  S
Co2082    Cl2089   2.441   1_455  S
C2090      C2097   1.476       .  S
C2093      C2094   1.405       .  A
C2093      C2902   1.399       .  A
C2093      H2099   1.083       .  S
C2094      C2095   1.405       .  A
C2095      C2900   1.398   1_545  A
C2095      H2100   1.083       .  S
C2096      C2899   1.396       .  A
C2096      C2097   1.405       .  A
C2096      H2101   1.083       .  S
C2097      C2098   1.404       .  A
C2098      C2897   1.400       .  A
C2098      H2102   1.083       .  S
C2103      C2104   1.405       .  A
C2103      C2108   1.400       .  A
C2103      H2109   1.083       .  S
C2104      C2105   1.405       .  A
C2105      C2106   1.397       .  A
C2105      H2110   1.083       .  S
C2106      C2107   1.405       .  A
C2106      H2111   1.082       .  S
C2107      C2108   1.405       .  A
C2108      H2112   1.083       .  S
C2113      C2114   1.410   1_565  A
C2113      C2922   1.403       .  A
C2113      H2119   1.083       .  S
C2114      C2115   1.404       .  A
C2115      C2920   1.395       .  A
C2115      H2120   1.083       .  S
C2116      C2919   1.396       .  A
C2116      C2117   1.405       .  A
C2116      H2121   1.083       .  S
C2117      C2118   1.403       .  A
C2118      C2917   1.404       .  A
C2118      H2122   1.083       .  S
C2123      C2124   1.410       .  A
C2123      C2128   1.401       .  A
C2123      H2129   1.083       .  S
C2124      C2125   1.401       .  A
C2125      C2126   1.393       .  A
C2125      H2130   1.083       .  S
C2126      C2127   1.406       .  A
C2126      H2131   1.083       .  S
C2127      C2128   1.400       .  A
C2128      H2132   1.083       .  S
C2133      C2134   1.404       .  A
C2133      C2138   1.406   1_545  A
C2133      H2139   1.082       .  S
C2134      C2135   1.407   1_545  A
C2135      C2940   1.391       .  A
C2135      H2140   1.083       .  S
C2136      C2939   1.391       .  A
C2136      C2137   1.398       .  A
C2136      H2141   1.084       .  S
C2137      C2942   1.409       .  A
C2138      C2941   1.409       .  A
C2138      H2142   1.083   1_565  S
C2143      C2144   1.409       .  A
C2143      C2148   1.389       .  A
C2144      C2145   1.405       .  A
C2145      C2146   1.405       .  A
C2145      H2150   1.083       .  S
C2146      C2147   1.407       .  A
C2146      H2151   1.083       .  S
C2147      C2148   1.396       .  A
C2153      C2154   1.409   1_565  A
C2153      C2158   1.393       .  A
C2153      H2159   1.082       .  S
C2154      C2959   1.406       .  A
C2155      C2958   1.405       .  A
C2155      C2156   1.408       .  A
C2155      H2160   1.083       .  S
C2156      C2157   1.408       .  A
C2156      H2161   1.083       .  S
C2157      C2962   1.398       .  A
C2158      C2961   1.398       .  A
C2158      H2162   1.083       .  S
C2163      C2164   1.403       .  A
C2163      C2168   1.407       .  A
C2163      H2169   1.082       .  S
C2164      C2165   1.410       .  A
C2165      C2166   1.393       .  A
C2165      H2170   1.083       .  S
C2166      C2167   1.400       .  A
C2166      H2171   1.083       .  S
C2167      C2168   1.411       .  A
C2168      H2172   1.083       .  S
C2173      C2174   1.397       .  A
C2173      C2178   1.388       .  A
C2173      H2179   1.084       .  S
C2174      C2175   1.405       .  A
C2175      C2176   1.405       .  A
C2175      H2180   1.083       .  S
C2176      C2177   1.405       .  A
C2176      H2181   1.082       .  S
C2177      C2178   1.405       .  A
C2178      H2182   1.082       .  S
C2183      C2184   1.407       .  A
C2183      C2188   1.406       .  A
C2183      H2189   1.083       .  S
C2184      C2185   1.395       .  A
C2185      C2186   1.389       .  A
C2185      H2190   1.084       .  S
C2186      C2187   1.407       .  A
C2186      H2191   1.081       .  S
C2187      C2188   1.404       .  A
C2188      H2192   1.083       .  S
C2193      C2194   1.396       .  A
C2193      C2198   1.394       .  A
C2193      H2199   1.084       .  S
C2194      C2195   1.414       .  A
C2195      C2196   1.414       .  A
C2195      H2200   1.083       .  S
C2196      C2197   1.405       .  A
C2196      H2201   1.082       .  S
C2197      C2198   1.413       .  A
C2198      H2202   1.083       .  S
C2203      C2204   1.397       .  A
C2203      C2208   1.393       .  A
C2203      H2209   1.084       .  S
C2204      C2205   1.412       .  A
C2205      C2206   1.416       .  A
C2205      H2210   1.083       .  S
C2206      C2207   1.408       .  A
C2206      H2211   1.083       .  S
C2207      C2208   1.410       .  A
C2208      H2212   1.083       .  S
C2213      C2214   1.404       .  A
C2213      C2218   1.404       .  A
C2213      H2219   1.083       .  S
C2214      C2215   1.397       .  A
C2215      C2216   1.391       .  A
C2215      H2220   1.084       .  S
C2216      C2217   1.406       .  A
C2216      H2221   1.081       .  S
C2217      C2218   1.405       .  A
C2218      H2222   1.083       .  S
C2223      C2224   1.398       .  A
C2223      C2228   1.389       .  A
C2223      H2229   1.084       .  S
C2224      C2225   1.408       .  A
C2225      C2226   1.407       .  A
C2225      H2230   1.083       .  S
C2226      C2227   1.404       .  A
C2226      H2231   1.083       .  S
C2227      C2228   1.404       .  A
C2228      H2232   1.080       .  S
C2233      C2234   1.406       .  A
C2233      C2238   1.413   1_545  A
C2233      H2239   1.083   1_545  S
C2234      C2235   1.410       .  A
C2235      C2236   1.391       .  A
C2235      H2240   1.082       .  S
C2236      C2237   1.396       .  A
C2236      H2241   1.084       .  S
C2237      C2238   1.411   1_545  A
C2238      H3046   1.083       .  S
H2242      C3042   1.083       .  S
C2243      C2244   1.411   1_565  A
C2243      C2248   1.410   1_565  A
C2243      H2249   1.083       .  S
C2244      C2245   1.394       .  A
C2245      C2246   1.388       .  A
C2245      H2250   1.084       .  S
C2246      C2247   1.410       .  A
C2246      H2251   1.083       .  S
C2247      C2248   1.404       .  A
C2248      H2252   1.083   1_545  S
C2253      C2254   1.406       .  A
C2253      C2258   1.393   1_545  A
C2253      H2259   1.083       .  S
C2254      C3059   1.403   1_545  A
C2255      C3058   1.401       .  A
C2255      C2256   1.399       .  A
C2255      H2260   1.083       .  S
C2256      C2257   1.407       .  A
C2256      H2261   1.083       .  S
C2257      C3062   1.401       .  A
C2258      C3061   1.402       .  A
C2258      H2262   1.083       .  S
C2263      C2264   1.405       .  A
C2263      C2268   1.398       .  A
C2263      H2269   1.083       .  S
C2264      C2265   1.402       .  A
C2265      C2266   1.393       .  A
C2265      H2270   1.083       .  S
C2266      C2267   1.405       .  A
C2266      H2271   1.082       .  S
C2267      C2268   1.402       .  A
C2268      H2272   1.083       .  S
C2273      C2274   1.404   1_565  A
C2273      C3082   1.401       .  A
C2273      H2279   1.083       .  S
C2274      C2275   1.407       .  A
C2275      C3080   1.398   1_545  A
C2275      H2280   1.083       .  S
C2276      C3079   1.397       .  A
C2276      C2277   1.403       .  A
C2276      H2281   1.083       .  S
C2277      C2278   1.407       .  A
C2278      C3077   1.401       .  A
C2278      H2282   1.083       .  S
C2283      C2284   1.404       .  A
C2283      C2288   1.399       .  A
C2283      H2289   1.083       .  S
C2284      C2285   1.406       .  A
C2285      C2286   1.397       .  A
C2285      H2290   1.082       .  S
C2286      C2287   1.404       .  A
C2286      H2291   1.083       .  S
C2287      C2288   1.405       .  A
C2288      H2292   1.083       .  S
C2293      C2294   1.405       .  A
C2293      C2298   1.398       .  A
C2293      H2299   1.083       .  S
C2294      C3099   1.405       .  A
C2295      C3098   1.404   1_545  A
C2295      C2296   1.399       .  A
C2295      H2300   1.083       .  S
C2296      C2297   1.405       .  A
C2296      H2301   1.083       .  S
C2297      C3102   1.403       .  A
C2298      C3101   1.405       .  A
C2298      H2302   1.083       .  S
C2303      C2304   1.405       .  A
C2303      C2308   1.397       .  A
C2303      H2309   1.082       .  S
C2304      C2305   1.404       .  A
C2305      C2306   1.399       .  A
C2305      H2310   1.083       .  S
C2306      C2307   1.404       .  A
C2306      H2311   1.083       .  S
C2307      C2308   1.404       .  A
C2308      H2312   1.083       .  S
C2313      C2314   1.402       .  A
C2313      C3122   1.402       .  A
C2313      H2319   1.083       .  S
C2314      C3119   1.404       .  A
C2315      C3118   1.405   1_545  A
C2315      C2316   1.397       .  A
C2315      H2320   1.083       .  S
C2316      C2317   1.404       .  A
C2316      H2321   1.083       .  S
C2317      C2318   1.408       .  A
C2318      C3117   1.404   1_545  A
C2318      H2322   1.083   1_545  S
C2323      C2324   1.402       .  A
C2323      C2328   1.401       .  A
C2323      H2329   1.083       .  S
C2324      C2325   1.404       .  A
C2325      C2326   1.393       .  A
C2325      H2330   1.083       .  S
C2326      C2327   1.403       .  A
C2326      H2331   1.083       .  S
C2327      C2328   1.408       .  A
C2328      H2332   1.083       .  S
C2333      C2334   1.406       .  A
C2333      C2338   1.404       .  A
C2333      H2339   1.083       .  S
C2334      C2335   1.399       .  A
C2335      C2336   1.391       .  A
C2335      H2340   1.084       .  S
C2336      C2337   1.406       .  A
C2336      H2341   1.083       .  S
C2337      C2338   1.406       .  A
C2338      H2342   1.082       .  S
C2343      C2344   1.404       .  A
C2343      C2348   1.403       .  A
C2343      H2349   1.083       .  S
C2344      C2345   1.399       .  A
C2345      C2346   1.389       .  A
C2345      H2350   1.084       .  S
C2346      C2347   1.404       .  A
C2346      H2351   1.083       .  S
C2347      C2348   1.404       .  A
C2348      H2352   1.083       .  S
C2353      C2354   1.405       .  A
C2353      C2358   1.403       .  A
C2353      H2359   1.083       .  S
C2354      C2355   1.400       .  A
C2355      C2356   1.393       .  A
C2355      H2360   1.083       .  S
C2356      C2357   1.404       .  A
C2356      H2361   1.082       .  S
C2357      C2358   1.403       .  A
C2358      H2362   1.083       .  S
C2363      C2364   1.404       .  A
C2363      C2368   1.402       .  A
C2363      H2369   1.083       .  S
C2364      C2365   1.398       .  A
C2365      C2366   1.391       .  A
C2365      H2370   1.084       .  S
C2366      C2367   1.406       .  A
C2366      H2371   1.083       .  S
C2367      C2368   1.405       .  A
C2368      H2372   1.082       .  S
C2373      C2374   1.406       .  A
C2373      C2378   1.407       .  A
C2373      H2379   1.083   1_545  S
C2374      C2375   1.400       .  A
C2375      C2376   1.395       .  A
C2375      H2380   1.083       .  S
C2376      C2377   1.407       .  A
C2376      H2381   1.083       .  S
C2377      C2378   1.405       .  A
C2378      H2382   1.083   1_545  S
C2383      C2384   1.405   1_565  A
C2383      C2388   1.402   1_565  A
C2383      H3193   1.083       .  S
C2384      C2385   1.400       .  A
C2385      C2386   1.393       .  A
C2385      H2390   1.083       .  S
C2386      C2387   1.404       .  A
C2386      H2391   1.083       .  S
C2387      C2388   1.402       .  A
C2388      H3196   1.083   1_545  S
H2389      C3187   1.083       .  S
H2392      C3192   1.083       .  S
C2393      C2394   1.406       .  A
C2393      C2398   1.389       .  A
C2393      H2399   1.081       .  S
C2394      C2395   1.404       .  A
C2395      C2396   1.407       .  A
C2395      H2400   1.083       .  S
C2396      C2397   1.407       .  A
C2396      H2401   1.083       .  S
C2397      C2398   1.397       .  A
C2398      H2402   1.084       .  S
C2403      C2404   1.398       .  A
C2403      C2408   1.391       .  A
C2403      H2409   1.083       .  S
C2404      C2405   1.404       .  A
C2405      C2406   1.402       .  A
C2405      H2410   1.083       .  S
C2406      C2407   1.404       .  A
C2406      H2411   1.083       .  S
C2407      C2408   1.404       .  A
C2408      H2412   1.083       .  S
N2413      H2445   1.038   1_545  S
N2413      C2417   1.351       .  A
N2414      C2422   1.351   1_545  A
N2415      H2446   1.037       .  S
N2415      C2420   1.355       .  A
N2416      C2424   1.350       .  A
C2417      C2425   1.385       .  A
C2417      C2433   1.411   1_545  A
C2418      C2434   1.414       .  A
C2418      C2426   1.386       .  A
C2419      C2427   1.387       .  A
C2419      C2436   1.418   1_545  A
C2420      C2435   1.423       .  A
C2420      C2428   1.389       .  A
C2421      C2433   1.411       .  A
C2421      C2429   1.385       .  A
C2422      C2436   1.415       .  A
C2422      C2430   1.388       .  A
C2423      C2431   1.386       .  A
C2423      C2434   1.412       .  A
C2424      C2432   1.387       .  A
C2424      C2435   1.414       .  A
C2425      H2437   1.083       .  S
C2426      H2438   1.082       .  S
C2427      H2439   1.081       .  S
C2428      H2440   1.082       .  S
C2429      H2441   1.082       .  S
C2430      H2442   1.082       .  S
C2431      H2443   1.082       .  S
C2432      H2444   1.082       .  S
C2433      C3208   1.483       .  S
C2434      C3188   1.481       .  S
C2435      C3178   1.486       .  S
C2436      C3201   1.483       .  S
N2447      H2479   1.037       .  S
N2447      C2452   1.353       .  A
N2447      C2451   1.353       .  A
N2448      C2456   1.349       .  A
N2449      H2480   1.038       .  S
N2449      C2454   1.352       .  A
N2449      C2453   1.353       .  A
N2450      C2458   1.350       .  A
C2451      C2459   1.385       .  A
C2451      C2467   1.413       .  A
C2452      C2468   1.418       .  A
C2452      C2460   1.389       .  A
C2453      C2461   1.388       .  A
C2453      C2470   1.415       .  A
C2454      C2469   1.411       .  A
C2454      C2462   1.386       .  A
C2455      C2467   1.407       .  A
C2455      C2463   1.386       .  A
C2456      C2470   1.409       .  A
C2456      C2464   1.385       .  A
C2457      C2465   1.386       .  A
C2457      C2468   1.412       .  A
C2458      C2466   1.386       .  A
C2458      C2469   1.409       .  A
C2459      C2460   1.374       .  A
C2459      H2471   1.083       .  S
C2460      H2472   1.082       .  S
C2461      C2462   1.373       .  A
C2461      H2473   1.082       .  S
C2462      H2474   1.082       .  S
C2463      H2475   1.082       .  S
C2464      H2476   1.082       .  S
C2465      H2477   1.082       .  S
C2466      H2478   1.082       .  S
C2467      C3138   1.478       .  S
C2468      C3158   1.480       .  S
C2469      C3168   1.477       .  S
C2470      C3148   1.479       .  S
C2481      N2499   1.356       .  A
C2481      C2518   1.454       .  S
C2481      C3211   1.479       .  S
N2482      N2499   1.330       .  A
N2482      N2504   1.317       .  A
N2482     Co2519   2.099       .  S
C2483      N2508   1.348       .  A
C2483      H2528   1.081       .  S
C2483      C2521   1.466       .  S
H2484      C2525   1.081       .  S
C2485      N2509   1.345       .  A
C2485      H2514   1.082       .  S
C2485      C2489   1.466       .  S
Co2486     N2504   2.057       .  S
Co2486     N2494   2.061       .  S
Co2486     N2526   2.051       .  S
Co2486     N2502   2.062       .  S
Co2486    Cl2530   2.435       .  S
N2487      C2525   1.346       .  A
N2487      N2494   1.318       .  A
N2487     Co2488   2.093       .  S
Co2488     N2491   2.083       .  S
Co2488     N2508   2.093       .  S
Co2488     N2495   2.078       .  S
Co2488    Cl2530   2.464       .  S
C2489      N2527   1.349       .  A
C2489      C3128   1.478       .  S
N2490      N2497   1.321       .  A
N2490      N2520   1.328       .  A
N2490     Co2523   2.100       .  S
N2491      N2509   1.322       .  A
N2491      N2527   1.323       .  A
N2492      C2521   1.343       .  A
N2492      N2502   1.319       .  A
H2493      C2518   1.080       .  S
N2494      N2515   1.318       .  A
N2495      N2513   1.321       .  A
N2495      N2500   1.323       .  A
C2496      N2500   1.350       .  A
C2496      C2524   1.468       .  S
C2496      C3108   1.478       .  S
N2497      C2512   1.337       .  A
N2497     Co2519   2.087       .  S
C2498      N2526   1.328       .  A
C2498      H2532   1.081       .  S
C2498      C2501   1.448       .  S
C2501      N2522   1.359       .  A
C2501      C3198   1.477       .  S
N2502      N2508   1.317       .  A
N2503      C2529   1.341       .  A
N2503      N2505   1.321       .  A
N2503     Co2519   2.086       .  S
N2504      C2518   1.331       .  A
N2505      N2533   1.323       .  A
N2505     Co2523   2.089       .  S
H2506      C2529   1.082       .  S
H2507      C2524   1.081       .  S
N2509     Co2523   2.099       .  S
N2510      N2522   1.333       .  A
N2510      N2526   1.318       .  A
N2510     Co2519   2.108       .  S
C2511      N2515   1.343       .  A
C2511      C2525   1.468       .  S
C2511      C3171   1.474       .  S
C2512      H2516   1.082       .  S
C2512      C2531   1.461       .  S
N2513      C2524   1.340       .  A
N2513     Co2523   2.097       .  S
C2517      N2533   1.350       .  A
C2517      C2529   1.463       .  S
C2517      C3098   1.477       .  S
Co2519    Cl2530   2.460       .  S
N2520      C2531   1.355       .  A
C2521      C3161   1.470       .  S
Co2523    Cl2530   2.439       .  S
C2531      C3118   1.479       .  S
C2534      N2552   1.358       .  A
C2534      C2571   1.451       .  S
C2534      C3191   1.479       .  S
N2535      N2552   1.331       .  A
N2535      N2557   1.318       .  A
N2535     Co2572   2.104       .  S
C2536      N2561   1.345       .  A
C2536      H2581   1.081       .  S
C2536      C2574   1.465       .  S
H2537      C2578   1.081       .  S
C2538      N2562   1.339       .  A
C2538      H2567   1.081       .  S
C2538      C2542   1.463       .  S
Co2539     N2557   2.058       .  S
Co2539     N2547   2.069       .  S
Co2539     N2579   2.066       .  S
Co2539     N2555   2.064       .  S
Co2539    Cl2583   2.424       .  S
N2540      C2578   1.346       .  A
N2540      N2547   1.319       .  A
N2540     Co2541   2.086       .  S
Co2541     N2544   2.084       .  S
Co2541     N2561   2.086       .  S
Co2541     N2548   2.078       .  S
Co2541    Cl2583   2.469       .  S
C2542      N2580   1.351       .  A
C2542      C3088   1.479       .  S
N2543      N2550   1.321       .  A
N2543      N2573   1.322       .  A
N2543     Co2576   2.087       .  S
N2544      N2562   1.320       .  A
N2544      N2580   1.324       .  A
N2545      C2574   1.344       .  A
N2545      N2555   1.318       .  A
H2546      C2571   1.080       .  S
N2547      N2568   1.319       .  A
N2548      N2566   1.319       .  A
N2548      N2553   1.323       .  A
C2549      N2553   1.351       .  A
C2549      C2577   1.464       .  S
C2549      C3071   1.474       .  S
N2550      C2565   1.342       .  A
N2550     Co2572   2.087       .  S
C2551      N2579   1.333       .  A
C2551      H2585   1.081       .  S
C2551      C2554   1.451       .  S
C2554      N2575   1.358       .  A
C2554      C3181   1.481       .  S
N2555      N2561   1.318       .  A
N2556      C2582   1.343       .  A
N2556      N2558   1.320       .  A
N2556     Co2572   2.090       .  S
N2557      C2571   1.330       .  A
N2558      N2586   1.319       .  A
N2558     Co2576   2.072       .  S
H2559      C2582   1.082       .  S
H2560      C2577   1.082       .  S
N2562     Co2576   2.084       .  S
N2563      N2575   1.333       .  A
N2563      N2579   1.319       .  A
N2563     Co2572   2.111       .  S
C2564      N2568   1.343       .  A
C2564      C2578   1.462       .  S
C2564      C3151   1.466       .  S
C2565      H2569   1.082       .  S
C2565      C2584   1.465       .  S
N2566      C2577   1.338       .  A
N2566     Co2576   2.082       .  S
C2570      N2586   1.347       .  A
C2570      C2582   1.467       .  S
C2570      C3058   1.472       .  S
Co2572    Cl2583   2.472       .  S
N2573      C2584   1.351       .  A
C2574      C3141   1.472       .  S
Co2576    Cl2583   2.418       .  S
C2584      C3078   1.480       .  S
N2587      H2619   1.036       .  S
N2587      C2592   1.353       .  A
N2588      C2595   1.357       .  A
N2588      C2596   1.356       .  A
N2589      H2620   1.037       .  S
N2589      C2594   1.354   1_565  A
N2590      C2597   1.349       .  A
N2590      C2598   1.350       .  A
C2591      C2599   1.389       .  A
C2591      C2607   1.417       .  A
C2592      C2608   1.412       .  A
C2592      C2600   1.386   1_565  A
C2593      C2601   1.389       .  A
C2593      C2610   1.423       .  A
C2594      C2609   1.412   1_545  A
C2594      C2602   1.385       .  A
C2595      C2607   1.423       .  A
C2595      C2603   1.385       .  A
C2596      C2610   1.427       .  A
C2596      C2604   1.388       .  A
C2597      C2605   1.386       .  A
C2597      C2608   1.407       .  A
C2598      C2606   1.386       .  A
C2598      C2609   1.408       .  A
C2599      H2611   1.082       .  S
C2600      H2612   1.082       .  S
C2601      H2613   1.082       .  S
C2602      H2614   1.081       .  S
C2603      C2604   1.378       .  A
C2603      H2615   1.082       .  S
C2604      H2616   1.082       .  S
C2605      C2606   1.370       .  A
C2605      H2617   1.082       .  S
C2606      H2618   1.082       .  S
C2607      C3041   1.498       .  S
C2608      C3018   1.473       .  S
C2609      C3028   1.478       .  S
C2610      C3048   1.499       .  S
N2621      H2653   1.040       .  S
N2621      C2626   1.355   1_554  A
N2621      C2625   1.352       .  A
N2622      C2629   1.348       .  A
N2622      C2630   1.350       .  A
N2623      H2654   1.041       .  S
N2623      C2628   1.354   1_554  A
N2623      C2627   1.354       .  A
N2624      C2631   1.355       .  A
N2624      C2632   1.354       .  A
C2625      C2633   1.385       .  A
C2625      C2641   1.410       .  A
C2626      C2642   1.418       .  A
C2626      C2634   1.389       .  A
C2627      C2635   1.382       .  A
C2627      C2644   1.409       .  A
C2628      C2643   1.420       .  A
C2628      C2636   1.391       .  A
C2629      C2641   1.406       .  A
C2629      C2637   1.387       .  A
C2630      C2644   1.405       .  A
C2630      C2638   1.385       .  A
C2631      C2639   1.385       .  A
C2631      C2642   1.422       .  A
C2632      C2640   1.387       .  A
C2632      C2643   1.424       .  A
C2633      C2634   1.373   1_554  A
C2633      H2645   1.082       .  S
C2634      H2646   1.082       .  S
C2635      C2636   1.374   1_554  A
C2635      H2647   1.082       .  S
C2636      H2648   1.081       .  S
C2637      C2638   1.374       .  A
C2637      H2649   1.082       .  S
C2638      H2650   1.082       .  S
C2639      C2640   1.380       .  A
C2639      H2651   1.082       .  S
C2640      H2652   1.082       .  S
C2641      C2978   1.472       .  S
C2642      C2998   1.502       .  S
C2643      C3008   1.502       .  S
C2644      C2988   1.483       .  S
C2655      N2673   1.334       .  A
C2655      C2692   1.489       .  S
C2655      C3051   1.492       .  S
N2656      N2673   1.312       .  A
N2656      N2678   1.322       .  A
N2656     Co2693   2.055       .  S
C2657      N2682   1.354       .  A
C2657      H2702   1.081       .  S
C2657      C2695   1.477       .  S
H2658      C2699   1.080       .  S
C2659      N2683   1.361       .  A
C2659      H2688   1.081       .  S
C2659      C2663   1.485       .  S
Co2660     N2678   2.135       .  S
Co2660     N2700   2.067       .  S
Co2660    Cl2704   2.477       .  S
N2661      C2699   1.322       .  A
N2661      N2668   1.320       .  A
N2661     Co2662   2.052       .  S
Co2662     N2665   2.067       .  S
Co2662     N2682   2.112       .  S
Co2662     N2669   2.107       .  S
C2663      N2701   1.338       .  A
C2663      C3001   1.495       .  S
N2664      N2671   1.321       .  A
N2664      N2694   1.338       .  A
N2664     Co2697   2.124       .  S
N2665      N2683   1.322       .  A
N2665      N2701   1.315       .  A
N2666      C2695   1.340       .  A
N2666      N2676   1.315       .  A
H2667      C2692   1.081       .  S
N2668      N2689   1.342       .  A
N2669      N2687   1.320       .  A
N2669      N2674   1.334       .  A
C2670      N2674   1.362       .  A
C2670      C2698   1.450       .  S
C2670      C2948   1.486       .  S
N2671      C2686   1.327       .  A
N2671     Co2693   2.067       .  S
C2672      N2700   1.329       .  A
C2672      H2706   1.081       .  S
C2672      C2675   1.448       .  S
C2675      N2696   1.362       .  A
C2675      C2958   1.484       .  S
N2676      N2682   1.322       .  A
N2677      C2703   1.353       .  A
N2677      N2679   1.321       .  A
N2677     Co2693   2.109       .  S
N2678      C2692   1.362       .  A
N2679      N2707   1.316       .  A
N2679     Co2697   2.063       .  S
H2680      C2703   1.081       .  S
H2681      C2698   1.081       .  S
N2684      N2696   1.334       .  A
N2684      N2700   1.320       .  A
N2684     Co2693   2.111       .  S
C2685      N2689   1.373       .  A
C2685      C2699   1.443       .  S
C2685      C3038   1.502       .  S
C2686      H2690   1.080       .  S
C2686      C2705   1.447       .  S
N2687      C2698   1.327       .  A
C2691      N2707   1.340       .  A
C2691      C2703   1.477       .  S
C2691      C2968   1.481       .  S
Co2693    Cl2704   2.422       .  S
N2694      C2705   1.367       .  A
C2695      C2938   1.481       .  S
Co2697    Cl2704   2.475       .  S
C2705      C3011   1.495       .  S
N2708      H2740   1.037       .  S
N2708      C2713   1.355       .  A
N2708      C2712   1.355       .  A
N2709      C2716   1.351       .  A
N2709      C2717   1.352       .  A
N2710      H2741   1.041       .  S
N2710      C2715   1.352       .  A
N2710      C2714   1.352       .  A
N2711      C2718   1.351       .  A
N2711      C2719   1.351       .  A
C2712      C2720   1.387       .  A
C2712      C2728   1.420       .  A
C2713      C2729   1.420       .  A
C2713      C2721   1.387       .  A
C2714      C2722   1.387       .  A
C2714      C2731   1.412       .  A
C2715      C2730   1.411       .  A
C2715      C2723   1.386       .  A
C2716      C2728   1.413       .  A
C2716      C2724   1.387       .  A
C2717      C2731   1.413       .  A
C2717      C2725   1.386       .  A
C2718      C2726   1.387       .  A
C2718      C2729   1.413       .  A
C2719      C2727   1.386       .  A
C2719      C2730   1.411       .  A
C2720      C2721   1.378       .  A
C2720      H2732   1.082       .  S
C2721      H2733   1.082       .  S
C2722      C2723   1.376       .  A
C2722      H2734   1.082       .  S
C2723      H2735   1.082       .  S
C2724      C2725   1.370       .  A
C2726      C2727   1.371       .  A
C2726      H2738   1.082       .  S
C2727      H2739   1.082       .  S
C2728      C2941   1.488       .  S
C2729      C2951   1.488       .  S
C2730      C3068   1.484       .  S
C2731      C3061   1.489       .  S
N2742      H2774   1.040       .  S
N2742      C2747   1.355       .  A
N2742      C2746   1.354       .  A
N2743      C2750   1.355       .  A
N2743      C2751   1.355       .  A
N2744      H2775   1.041       .  S
N2744      C2749   1.354       .  A
N2744      C2748   1.353       .  A
N2745      C2752   1.351       .  A
N2745      C2753   1.351       .  A
C2746      C2754   1.386       .  A
C2746      C2762   1.415       .  A
C2747      C2763   1.418       .  A
C2747      C2755   1.388       .  A
C2748      C2756   1.387       .  A
C2748      C2765   1.415       .  A
C2749      C2764   1.415       .  A
C2749      C2757   1.387       .  A
C2750      C2762   1.418       .  A
C2750      C2758   1.386       .  A
C2751      C2765   1.420       .  A
C2751      C2759   1.387       .  A
C2752      C2760   1.386       .  A
C2752      C2763   1.412       .  A
C2753      C2761   1.386       .  A
C2753      C2764   1.413       .  A
C2754      C2755   1.375       .  A
C2756      C2757   1.374       .  A
C2756      H2768   1.082       .  S
C2757      H2769   1.082       .  S
C2758      C2759   1.374       .  A
C2758      H2770   1.082       .  S
C2759      H2771   1.082       .  S
C2760      C2761   1.373       .  A
C2760      H2772   1.082       .  S
C2761      H2773   1.082       .  S
C2762      C2961   1.491       .  S
C2763      C3081   1.492       .  S
C2764      C3091   1.491       .  S
C2765      C2971   1.494       .  S
N2776      H2808   1.042       .  S
N2776      C2781   1.353       .  A
N2776      C2780   1.352       .  A
N2777      C2784   1.348       .  A
N2777      C2785   1.352       .  A
N2778      H2809   1.042       .  S
N2778      C2783   1.352       .  A
N2778      C2782   1.355       .  A
N2779      C2786   1.351       .  A
N2779      C2787   1.350       .  A
C2780      C2788   1.388       .  A
C2780      C2796   1.415       .  A
C2781      C2797   1.415       .  A
C2781      C2789   1.386       .  A
C2782      C2790   1.386       .  A
C2782      C2799   1.417       .  A
C2783      C2798   1.415       .  A
C2783      C2791   1.387       .  A
C2784      C2796   1.409       .  A
C2784      C2792   1.386       .  A
C2785      C2799   1.412       .  A
C2785      C2793   1.386       .  A
C2786      C2794   1.386       .  A
C2786      C2797   1.412       .  A
C2787      C2795   1.387       .  A
C2787      C2798   1.412       .  A
C2788      C2789   1.379       .  A
C2788      H2800   1.082       .  S
C2789      H2801   1.082       .  S
C2790      C2791   1.378       .  A
C2790      H2802   1.082       .  S
C2791      H2803   1.082       .  S
C2792      C2793   1.373       .  A
C2794      C2795   1.372       .  A
C2794      H2806   1.082       .  S
C2795      H2807   1.082       .  S
C2796      C3101   1.485       .  S
C2797      C3111   1.491       .  S
C2798      C2928   1.487       .  S
C2799      C2918   1.500       .  S
N2810      H2842   1.041       .  S
N2810      C2815   1.353       .  A
N2810      C2814   1.354       .  A
N2811      C2818   1.351       .  A
N2811      C2819   1.352       .  A
N2812      H2843   1.041       .  S
N2812      C2817   1.352       .  A
N2812      C2816   1.354       .  A
N2813      C2820   1.351       .  A
N2813      C2821   1.350       .  A
C2814      C2822   1.387       .  A
C2814      C2830   1.415       .  A
C2815      C2831   1.414       .  A
C2815      C2823   1.386       .  A
C2816      C2824   1.387       .  A
C2816      C2833   1.415       .  A
C2817      C2832   1.413       .  A
C2817      C2825   1.387       .  A
C2818      C2830   1.414       .  A
C2818      C2826   1.386       .  A
C2819      C2833   1.414       .  A
C2819      C2827   1.385       .  A
C2820      C2828   1.386       .  A
C2820      C2831   1.411       .  A
C2821      C2829   1.387       .  A
C2821      C2832   1.412       .  A
C2822      C2823   1.375       .  A
C2824      C2825   1.375       .  A
C2824      H2836   1.082       .  S
C2825      H2837   1.082       .  S
C2826      C2827   1.374       .  A
C2826      H2838   1.082       .  S
C2827      H2839   1.082       .  S
C2828      C2829   1.374       .  A
C2828      H2840   1.082       .  S
C2829      H2841   1.082       .  S
C2830      C3121   1.492       .  S
C2831      C2898   1.487       .  S
C2832      C2908   1.485       .  S
C2833      C3131   1.497       .  S
C2844      N2862   1.358       .  A
C2844      C2881   1.445       .  S
C2844      C3031   1.473       .  S
N2845      N2862   1.332       .  A
N2845      N2867   1.318       .  A
N2845     Co2882   2.106       .  S
C2846      H2891   1.081       .  S
C2846      C2884   1.461       .  S
H2847      C2888   1.081       .  S
C2848      N2872   1.339       .  A
C2848      H2877   1.081       .  S
C2848      C2852   1.464       .  S
Co2849     N2867   2.046       .  S
Co2849     N2857   2.053       .  S
Co2849     N2889   2.049   1_655  S
Co2849     N2865   2.061   1_655  S
Co2849    Cl2893   2.430       .  S
N2850      C2888   1.353       .  A
N2850      N2857   1.316       .  A
N2850     Co2851   2.107       .  S
Co2851     N2854   2.077       .  S
Co2851     N2871   2.091   1_655  S
Co2851    Cl2893   2.459       .  S
C2852      N2890   1.350       .  A
C2852      C2911   1.474       .  S
N2853      N2860   1.321       .  A
N2853      N2883   1.324       .  A
N2853     Co2886   2.088   1_655  S
N2854      N2872   1.321       .  A
N2854      N2890   1.323       .  A
N2855      C2884   1.345       .  A
H2856      C2881   1.081       .  S
N2857      N2878   1.315       .  A
N2858      N2876   1.320       .  A
N2858      N2863   1.321       .  A
C2859      N2863   1.348       .  A
C2859      C2887   1.466       .  S
C2859      C2931   1.472       .  S
N2860      C2875   1.341       .  A
N2860     Co2882   2.090       .  S
C2861      H2895   1.081       .  S
C2861      C2864   1.453       .  S
C2864      N2885   1.352       .  A
C2864      C3021   1.469       .  S
N2865      N2871   1.317       .  A
N2866      C2892   1.336       .  A
N2866      N2868   1.320       .  A
N2867      C2881   1.326       .  A
N2868      N2896   1.328       .  A
H2869      C2892   1.082       .  S
H2870      C2887   1.082       .  S
N2872     Co2886   2.090   1_655  S
N2873      N2889   1.317       .  A
N2873     Co2882   2.100   1_455  S
C2874      N2878   1.341       .  A
C2874      C2888   1.475       .  S
C2874      C2991   1.481       .  S
C2875      H2879   1.082       .  S
C2875      C2894   1.465       .  S
N2876      C2887   1.343       .  A
C2880      N2896   1.356       .  A
C2880      C2892   1.460       .  S
C2880      C2921   1.478       .  S
Co2882    Cl2893   2.457       .  S
N2883      C2894   1.351       .  A
C2884      C2981   1.466       .  S
Co2886    Cl2893   2.441   1_455  S
C2894      C2901   1.480       .  S
C2897      C2898   1.405       .  A
C2897      H2903   1.083       .  S
C2898      C2899   1.402       .  A
C2899      H2904   1.083       .  S
C2900      C2901   1.406       .  A
C2900      H2905   1.083       .  S
C2901      C2902   1.404   1_565  A
C2902      H2906   1.083       .  S
C2907      C2908   1.404       .  A
C2907      C2912   1.397       .  A
C2907      H2913   1.083       .  S
C2908      C2909   1.403       .  A
C2909      C2910   1.396       .  A
C2909      H2914   1.083       .  S
C2910      C2911   1.405       .  A
C2910      H2915   1.082       .  S
C2911      C2912   1.403       .  A
C2912      H2916   1.083       .  S
C2917      C2918   1.411       .  A
C2917      H2923   1.083       .  S
C2918      C2919   1.405       .  A
C2919      H2924   1.083       .  S
C2920      C2921   1.405   1_545  A
C2920      H2925   1.083       .  S
C2921      C2922   1.402       .  A
C2922      H2926   1.083       .  S
C2927      C2928   1.407       .  A
C2927      C2932   1.401       .  A
C2927      H2933   1.083       .  S
C2928      C2929   1.402       .  A
C2929      C2930   1.393       .  A
C2929      H2934   1.083       .  S
C2930      C2931   1.404       .  A
C2930      H2935   1.083       .  S
C2931      C2932   1.402       .  A
C2932      H2936   1.083       .  S
C2937      C2938   1.404       .  A
C2937      C2942   1.407       .  A
C2937      H2943   1.082       .  S
C2938      C2939   1.409       .  A
C2939      H2944   1.083       .  S
C2940      C2941   1.398       .  A
C2940      H2945   1.084       .  S
C2942      H2946   1.083       .  S
C2947      C2948   1.409       .  A
C2947      C2952   1.389       .  A
C2948      C2949   1.406       .  A
C2949      C2950   1.408       .  A
C2949      H2954   1.083       .  S
C2950      C2951   1.409       .  A
C2950      H2955   1.083       .  S
C2951      C2952   1.396       .  A
C2957      C2958   1.409       .  A
C2957      C2962   1.393       .  A
C2957      H2963   1.082       .  S
C2959      C2960   1.410   1_545  A
C2959      H2964   1.083       .  S
C2960      C2961   1.409       .  A
C2960      H2965   1.083       .  S
C2962      H2966   1.084       .  S
C2967      C2968   1.403       .  A
C2967      C2972   1.405       .  A
C2967      H2973   1.082       .  S
C2968      C2969   1.409       .  A
C2969      C2970   1.394       .  A
C2969      H2974   1.083       .  S
C2970      C2971   1.400       .  A
C2970      H2975   1.083       .  S
C2971      C2972   1.410       .  A
C2972      H2976   1.083       .  S
C2977      C2978   1.398       .  A
C2977      C2982   1.388       .  A
C2977      H2983   1.084       .  S
C2978      C2979   1.403       .  A
C2979      C2980   1.400       .  A
C2979      H2984   1.083       .  S
C2980      C2981   1.404       .  A
C2980      H2985   1.083       .  S
C2981      C2982   1.402       .  A
C2982      H2986   1.082       .  S
C2987      C2988   1.407       .  A
C2987      C2992   1.408       .  A
C2987      H2993   1.083       .  S
C2988      C2989   1.397       .  A
C2989      C2990   1.389       .  A
C2989      H2994   1.084       .  S
C2990      C2991   1.408       .  A
C2990      H2995   1.083       .  S
C2991      C2992   1.405       .  A
C2992      H2996   1.082       .  S
C2997      C2998   1.398       .  A
C2997      C3002   1.394       .  A
C2997      H3003   1.083       .  S
C2998      C2999   1.415       .  A
C2999      C3000   1.413       .  A
C2999      H3004   1.083       .  S
C3000      C3001   1.405       .  A
C3000      H3005   1.082       .  S
C3001      C3002   1.412       .  A
C3002      H3006   1.083       .  S
C3007      C3008   1.398       .  A
C3007      C3012   1.393       .  A
C3007      H3013   1.083       .  S
C3008      C3009   1.414       .  A
C3009      C3010   1.410       .  A
C3009      H3014   1.083       .  S
C3010      C3011   1.404       .  A
C3010      H3015   1.083       .  S
C3011      C3012   1.412       .  A
C3012      H3016   1.080       .  S
C3017      C3018   1.404       .  A
C3017      C3022   1.401       .  A
C3017      H3023   1.083   1_565  S
C3018      C3019   1.396       .  A
C3019      C3020   1.387       .  A
C3019      H3024   1.084       .  S
C3020      C3021   1.404       .  A
C3020      H3025   1.081       .  S
C3021      C3022   1.405       .  A
C3022      H3026   1.083   1_565  S
C3027      C3028   1.396       .  A
C3027      C3032   1.386       .  A
C3027      H3033   1.084       .  S
C3028      C3029   1.406   1_565  A
C3029      C3030   1.405   1_545  A
C3029      H3034   1.083       .  S
C3030      C3031   1.404       .  A
C3030      H3035   1.083   1_565  S
C3031      C3032   1.406       .  A
C3032      H3036   1.082       .  S
C3037      C3038   1.408       .  A
C3037      C3042   1.417       .  A
C3037      H3043   1.082       .  S
C3038      C3039   1.414       .  A
C3039      C3040   1.391       .  A
C3039      H3044   1.080       .  S
C3040      C3041   1.393       .  A
C3040      H3045   1.084       .  S
C3041      C3042   1.414       .  A
C3047      C3048   1.414       .  A
C3047      C3052   1.413       .  A
C3047      H3053   1.083       .  S
C3048      C3049   1.396       .  A
C3049      C3050   1.392       .  A
C3049      H3054   1.084       .  S
C3050      C3051   1.413       .  A
C3050      H3055   1.083       .  S
C3051      C3052   1.404       .  A
C3052      H3056   1.082       .  S
C3057      C3058   1.407       .  A
C3057      C3062   1.392       .  A
C3057      H3063   1.083       .  S
C3059      C3060   1.400       .  A
C3059      H3064   1.083       .  S
C3060      C3061   1.407       .  A
C3060      H3065   1.083       .  S
C3062      H3066   1.083       .  S
C3067      C3068   1.405       .  A
C3067      C3072   1.400       .  A
C3067      H3073   1.083       .  S
C3068      C3069   1.402       .  A
C3069      C3070   1.395       .  A
C3069      H3074   1.083       .  S
C3070      C3071   1.406       .  A
C3070      H3075   1.083       .  S
C3071      C3072   1.402       .  A
C3072      H3076   1.083       .  S
C3077      C3078   1.404       .  A
C3077      H3083   1.083       .  S
C3078      C3079   1.406       .  A
C3079      H3084   1.083       .  S
C3080      C3081   1.403       .  A
C3080      H3085   1.083       .  S
C3081      C3082   1.406       .  A
C3082      H3086   1.083       .  S
C3087      C3088   1.403       .  A
C3087      C3092   1.398       .  A
C3087      H3093   1.083       .  S
C3088      C3089   1.407       .  A
C3089      C3090   1.399       .  A
C3089      H3094   1.082       .  S
C3090      C3091   1.404       .  A
C3090      H3095   1.083       .  S
C3091      C3092   1.405       .  A
C3092      H3096   1.083       .  S
C3097      C3098   1.405       .  A
C3097      C3102   1.397   1_565  A
C3097      H3103   1.083       .  S
C3099      C3100   1.395       .  A
C3099      H3104   1.083       .  S
C3100      C3101   1.402       .  A
C3100      H3105   1.083       .  S
C3102      H3106   1.083       .  S
C3107      C3108   1.404       .  A
C3107      C3112   1.395       .  A
C3107      H3113   1.082       .  S
C3108      C3109   1.406       .  A
C3109      C3110   1.402       .  A
C3109      H3114   1.083       .  S
C3110      C3111   1.405       .  A
C3110      H3115   1.083       .  S
C3111      C3112   1.404       .  A
C3112      H3116   1.083       .  S
C3117      C3118   1.403       .  A
C3117      H3123   1.083       .  S
C3119      C3120   1.396       .  A
C3119      H3124   1.083       .  S
C3120      C3121   1.404       .  A
C3120      H3125   1.083       .  S
C3121      C3122   1.407       .  A
C3122      H3126   1.083       .  S
C3127      C3128   1.402       .  A
C3127      C3132   1.402       .  A
C3127      H3133   1.083       .  S
C3128      C3129   1.405       .  A
C3129      C3130   1.399       .  A
C3129      H3134   1.083       .  S
C3130      C3131   1.405       .  A
C3130      H3135   1.083       .  S
C3131      C3132   1.408       .  A
C3132      H3136   1.083       .  S
C3137      C3138   1.404       .  A
C3137      C3142   1.401       .  A
C3137      H3143   1.083       .  S
C3138      C3139   1.398       .  A
C3139      C3140   1.389       .  A
C3139      H3144   1.084       .  S
C3140      C3141   1.405       .  A
C3140      H3145   1.083       .  S
C3141      C3142   1.405       .  A
C3142      H3146   1.082       .  S
C3147      C3148   1.404       .  A
C3147      C3152   1.400       .  A
C3147      H3153   1.083       .  S
C3148      C3149   1.400       .  A
C3149      C3150   1.394       .  A
C3149      H3154   1.083       .  S
C3150      C3151   1.403       .  A
C3150      H3155   1.083       .  S
C3151      C3152   1.402       .  A
C3152      H3156   1.083       .  S
C3157      C3158   1.405       .  A
C3157      C3162   1.403       .  A
C3157      H3163   1.083       .  S
C3158      C3159   1.398       .  A
C3159      C3160   1.391       .  A
C3159      H3164   1.083       .  S
C3160      C3161   1.403       .  A
C3160      H3165   1.082       .  S
C3161      C3162   1.403       .  A
C3162      H3166   1.083       .  S
C3167      C3168   1.402       .  A
C3167      C3172   1.400       .  A
C3167      H3173   1.083       .  S
C3168      C3169   1.399       .  A
C3169      C3170   1.392       .  A
C3169      H3174   1.084       .  S
C3170      C3171   1.407       .  A
C3170      H3175   1.083       .  S
C3171      C3172   1.404       .  A
C3172      H3176   1.082       .  S
C3177      C3178   1.406       .  A
C3177      C3182   1.407       .  A
C3177      H3183   1.083       .  S
C3178      C3179   1.399       .  A
C3179      C3180   1.393       .  A
C3179      H3184   1.084       .  S
C3180      C3181   1.407       .  A
C3180      H3185   1.083       .  S
C3181      C3182   1.405       .  A
C3182      H3186   1.083       .  S
C3187      C3188   1.406       .  A
C3187      C3192   1.406       .  A
C3188      C3189   1.396       .  A
C3189      C3190   1.388       .  A
C3189      H3194   1.084       .  S
C3190      C3191   1.407       .  A
C3190      H3195   1.081       .  S
C3191      C3192   1.406       .  A
C3197      C3198   1.406       .  A
C3197      C3202   1.387       .  A
C3197      H3203   1.081       .  S
C3198      C3199   1.405       .  A
C3199      C3200   1.407   1_565  A
C3199      H3204   1.083   1_565  S
C3200      C3201   1.408   1_545  A
C3200      H3205   1.083       .  S
C3201      C3202   1.396       .  A
C3202      H3206   1.084       .  S
C3207      C3208   1.398       .  A
C3207      C3212   1.387       .  A
C3207      H3213   1.084       .  S
C3208      C3209   1.406       .  A
C3209      C3210   1.405       .  A
C3209      H3214   1.083   1_565  S
C3210      C3211   1.407       .  A
C3210      H3215   1.083   1_565  S
C3211      C3212   1.406       .  A
C3212      H3216   1.080       .  S
