geometry optimzed in LAMMPS
_audit_creation_date              2020-12-01 
_audit_creation_method            'lammps2cif' 
_symmetry_space_group_name_H-M    'P1' 
_symmetry_Int_Tables_number       1 
_symmetry_cell_setting            triclinic 
loop_ 
_symmetry_equiv_pos_as_xyz 
  x,y,z 
_cell_length_a                    27.57405379 
_cell_length_b                    27.5912241621109 
_cell_length_c                    27.48707343181468 
_cell_angle_alpha                 90.01078412269864 
_cell_angle_beta                  90.07399638307614 
_cell_angle_gamma                 90.10048460272596 
loop_ 
_atom_site_label 
_atom_site_type_symbol 
_atom_site_fract_x 
_atom_site_fract_y 
_atom_site_fract_z 
_atom_site_charge 
O1          O  0.05450551  0.28984016  0.44210437    -0.72100
O2          O  0.95760878  0.29117205  0.54038287    -0.72300
O3          O  0.05545324  0.29605958  0.53953929    -0.72200
O4          O  0.95727856  0.28503830  0.44326390    -0.72200
O5          O  0.96420277  0.20668401  0.44467331    -0.72100
O6          O  0.05545331  0.21771741  0.54800321    -0.72200
O7          O  0.95807048  0.21253176  0.54194385    -0.72100
O8          O  0.06134479  0.21175140  0.45034498    -0.72300
V9          V  0.00631176  0.28902916  0.49146482     1.35200
V10         V  0.00977779  0.21364237  0.49619765     1.35200
C11         C  0.07464075  0.25058668  0.42991764     0.77100
C12         C  0.94062505  0.25201898  0.55729898     0.77200
C13         C  0.07158412  0.25876111  0.56069370     0.77100
C14         C  0.94421483  0.24410541  0.42730480     0.77000
C15         C  0.22521168  0.28665994  0.24723368     0.02000
C16         C  0.22485026  0.24913025  0.28272972     0.02000
C17         C  0.25879156  0.21034840  0.27927532     0.02000
C18         C  0.29325878  0.20984694  0.24094550     0.02000
C19         C  0.29392185  0.24785962  0.20645253     0.02000
C20         C  0.26019261  0.28617877  0.20962068     0.02000
C21         C  0.78039041  0.26129495  0.69347994     0.02000
C22         C  0.78040487  0.29692761  0.73050044     0.02000
C23         C  0.74563398  0.29481542  0.76812577     0.02000
C24         C  0.70967831  0.25814898  0.76771130     0.02000
C25         C  0.70783791  0.22393271  0.72925667     0.02000
C26         C  0.74394948  0.22491229  0.69260815     0.02000
O27         O  0.55032604  0.94382867  0.29011376    -0.72100
O28         O  0.45866301  0.04684295  0.28453489    -0.72300
O29         O  0.45350973  0.94917479  0.28983145    -0.72200
O30         O  0.55599252  0.04112004  0.28524798    -0.72200
O31         O  0.55481786  0.03887832  0.20637831    -0.72100
O32         O  0.45483961  0.94347155  0.21105413    -0.72200
O33         O  0.45659197  0.04069828  0.20574729    -0.72100
O34         O  0.55256741  0.94180288  0.21109975    -0.72300
V35         V  0.50460235  0.99525612  0.28587619     1.35200
V36         V  0.50468881  0.99136835  0.21006754     1.35200
C37         C  0.56698632  0.92535360  0.25149877     0.77100
C38         C  0.44157401  0.06087273  0.24417881     0.77200
C39         C  0.43711877  0.93011304  0.25134688     0.77100
C40         C  0.57297189  0.05580049  0.24519787     0.77000
C41         C  0.70437085  0.76712724  0.25910743     0.02000
C42         C  0.70352513  0.73038784  0.22325899     0.02000
C43         C  0.73934237  0.69358511  0.22349676     0.02000
C44         C  0.77630552  0.69394668  0.25931794     0.02000
C45         C  0.77555030  0.72925844  0.29649446     0.02000
C46         C  0.73958747  0.76585450  0.29660079     0.02000
O47         O  0.93969570  0.78442831  0.55183227    -0.72100
O48         O  0.04066387  0.78822080  0.45805005    -0.72300
O49         O  0.94345347  0.78091762  0.45406940    -0.72200
O50         O  0.03651924  0.79154508  0.55583645    -0.72200
O51         O  0.04354506  0.71316363  0.55731691    -0.72100
O52         O  0.94729599  0.70238067  0.45861792    -0.72200
O53         O  0.04518392  0.70975995  0.45998317    -0.72100
O54         O  0.94599414  0.70609347  0.55588144    -0.72300
V55         V  0.99016931  0.78474124  0.50494213     1.35200
V56         V  0.99541848  0.70935772  0.50782708     1.35200
C57         C  0.92568720  0.74468152  0.56991776     0.77100
C58         C  0.06040576  0.74968922  0.44314039     0.77200
C59         C  0.92900943  0.73984482  0.43959049     0.77100
C60         C  0.05625409  0.75414599  0.57355327     0.77000
C61         C  0.19446338  0.73578693  0.76851101     0.02000
C62         C  0.19569149  0.77067001  0.73077935     0.02000
C63         C  0.23271655  0.80627727  0.72993537     0.02000
C64         C  0.26837529  0.80769839  0.76717388     0.02000
C65         C  0.26743969  0.77222341  0.80457913     0.02000
C66         C  0.23039539  0.73640888  0.80535234     0.02000
O67         O  0.44759512  0.05328057  0.70490049    -0.72100
O68         O  0.54369581  0.95450773  0.71160281    -0.72300
O69         O  0.44606182  0.95586517  0.71330185    -0.72200
O70         O  0.54490556  0.05190262  0.70262865    -0.72200
O71         O  0.54769485  0.05795334  0.78142917    -0.72100
O72         O  0.44680858  0.96360995  0.79198104    -0.72200
O73         O  0.54477920  0.96063599  0.79031025    -0.72100
O74         O  0.44991865  0.06016532  0.78360484    -0.72300
V75         V  0.49562740  0.00395212  0.70964998     1.35200
V76         V  0.49735661  0.01044453  0.78529177     1.35200
C77         C  0.43251854  0.07359972  0.74325895     0.77100
C78         C  0.56084228  0.94086670  0.75211042     0.77200
C79         C  0.42914632  0.94390298  0.75433135     0.77100
C80         C  0.56300848  0.07132628  0.74014124     0.77000
O81         O  0.28871357  0.55773511  0.05243841    -0.72100
O82         O  0.29383779  0.46286998  0.95341075    -0.72300
O83         O  0.28689271  0.56014767  0.95466567    -0.72200
O84         O  0.29488782  0.46085548  0.05105524    -0.72200
O85         O  0.21643193  0.45365814  0.04943570    -0.72100
O86         O  0.20822182  0.55683094  0.95831655    -0.72200
O87         O  0.21522496  0.45901312  0.95243734    -0.72100
O88         O  0.21029946  0.55101569  0.05570207    -0.72300
V89         V  0.28953371  0.51037428  0.00285219     1.35200
V90         V  0.21402305  0.50528281  0.00386155     1.35200
C91         C  0.24906954  0.56967043  0.07185468     0.77100
C92         C  0.25561722  0.44450430  0.93609410     0.77200
C93         C  0.24605294  0.57597968  0.94088690     0.77100
C94         C  0.25688703  0.43964759  0.06577027     0.77000
O95         O  0.79022067  0.44818505  0.94529833    -0.72100
O96         O  0.78883486  0.54108996  0.04813963    -0.72300
O97         O  0.79292010  0.44379514  0.04287300    -0.72200
O98         O  0.78706195  0.54530276  0.95060237    -0.72200
O99         O  0.70847725  0.54335748  0.95286454    -0.72100
O100        O  0.71428460  0.43947550  0.04417113    -0.72200
O101        O  0.71018214  0.53619159  0.05080952    -0.72100
O102        O  0.71149105  0.44671721  0.94622715    -0.72300
V103        V  0.78822608  0.49451679  0.99683890     1.35200
V104        V  0.71262200  0.49148419  0.99850115     1.35200
C105        C  0.75078749  0.43255787  0.92752644     0.77100
C106        C  0.74909516  0.55410642  0.06704853     0.77200
C107        C  0.75491147  0.42400595  0.05898393     0.77100
C108        C  0.74702546  0.56177060  0.93581988     0.77000
C109        C  0.70162925  0.78432085  0.75176600     0.02000
C110        C  0.73699365  0.78338488  0.71449595     0.02000
C111        C  0.77395145  0.74772409  0.71523887     0.02000
C112        C  0.77387047  0.71127016  0.75136167     0.02000
C113        C  0.73749121  0.71127789  0.78772654     0.02000
C114        C  0.70245549  0.74882730  0.78883425     0.02000
O115        O  0.78545768  0.94810161  0.55245734    -0.72100
O116        O  0.79421044  0.03466321  0.44484200    -0.72300
O117        O  0.79026336  0.04508410  0.54210798    -0.72200
O118        O  0.78944572  0.93789445  0.45531221    -0.72200
O119        O  0.71113888  0.94297048  0.44948906    -0.72100
O120        O  0.71161390  0.04679539  0.54064905    -0.72200
O121        O  0.71565532  0.04073049  0.44358911    -0.72100
O122        O  0.70685639  0.94881825  0.54646098    -0.72300
V123        V  0.78831847  0.99152376  0.49865260     1.35200
V124        V  0.71281516  0.99477524  0.49514756     1.35200
C125        C  0.74467939  0.93275022  0.56683587     0.77100
C126        C  0.75639844  0.05304433  0.42647497     0.77200
C127        C  0.75114551  0.06420853  0.55636596     0.77100
C128        C  0.75022773  0.92232784  0.43724827     0.77000
C129        C  0.80289375  0.26819584  0.23627720     0.02000
C130        C  0.80269925  0.23166852  0.27229058     0.02000
C131        C  0.76589960  0.19595007  0.27231007     0.02000
C132        C  0.73106566  0.19483427  0.23437636     0.02000
C133        C  0.73180836  0.23102109  0.19776027     0.02000
C134        C  0.76678469  0.26860567  0.19984005     0.02000
O135        O  0.05331717  0.44254867  0.28963493    -0.72100
O136        O  0.95496889  0.53888146  0.29699797    -0.72300
O137        O  0.95552592  0.44169888  0.29006065    -0.72200
O138        O  0.05274652  0.53935644  0.29667208    -0.72200
O139        O  0.04873014  0.54836377  0.21820444    -0.72100
O140        O  0.95874248  0.44387253  0.21111399    -0.72200
O141        O  0.95128446  0.54093060  0.21822979    -0.72100
O142        O  0.05563789  0.45100728  0.21115099    -0.72300
V143        V  0.00410824  0.49074549  0.29183691     1.35200
V144        V  0.00363309  0.49603822  0.21615908     1.35200
C145        C  0.07159353  0.43065032  0.24915813     0.77100
C146        C  0.93503891  0.55509361  0.25888062     0.77200
C147        C  0.94124068  0.42555355  0.24942758     0.77100
C148        C  0.06678081  0.56086363  0.25863357     0.77000
C149        C  0.28995211  0.78007436  0.26464059     0.02000
C150        C  0.25392927  0.78130473  0.30132967     0.02000
C151        C  0.21795973  0.74452108  0.30340819     0.02000
C152        C  0.21696658  0.70754044  0.26758082     0.02000
C153        C  0.25109288  0.70843970  0.22922699     0.02000
C154        C  0.28820846  0.74373857  0.22847209     0.02000
O155        O  0.29759453  0.04919228  0.45385468    -0.72100
O156        O  0.28680701  0.95921468  0.55829906    -0.72300
O157        O  0.29269836  0.95192483  0.46137239    -0.72200
O158        O  0.29181390  0.05662321  0.55126370    -0.72200
O159        O  0.21318233  0.05881199  0.54804763    -0.72100
O160        O  0.21433995  0.95707668  0.45449997    -0.72200
O161        O  0.20830959  0.96187892  0.55214166    -0.72100
O162        O  0.21919237  0.05386980  0.45030225    -0.72300
V163        V  0.29073174  0.00436929  0.50613793     1.35200
V164        V  0.21529693  0.00784756  0.50134391     1.35200
C165        C  0.26011555  0.06690738  0.43414827     0.77100
C166        C  0.24561975  0.94514749  0.57283887     0.77200
C167        C  0.25366503  0.93683760  0.44254376     0.77100
C168        C  0.25241537  0.07547107  0.56517096     0.77000
C169        C  0.21979998  0.26760329  0.70922275     0.02000
C170        C  0.22006986  0.30215932  0.74741756     0.02000
C171        C  0.25522244  0.29870690  0.78489543     0.02000
C172        C  0.29090143  0.26205624  0.78333421     0.02000
C173        C  0.28938328  0.22657756  0.74633859     0.02000
C174        C  0.25346518  0.22887967  0.70964597     0.02000
O175        O  0.04080287  0.55718517  0.79910497    -0.72100
O176        O  0.94878779  0.45371780  0.79189449    -0.72300
O177        O  0.04658311  0.45958629  0.79675498    -0.72200
O178        O  0.94372182  0.55149726  0.79502020    -0.72200
O179        O  0.94784996  0.55479955  0.71611476    -0.72100
O180        O  0.04881795  0.46065207  0.71782289    -0.72200
O181        O  0.95095276  0.45802891  0.71296129    -0.72100
O182        O  0.04528769  0.55774934  0.72027616    -0.72300
V183        V  0.99504559  0.50543633  0.79421834     1.35200
V184        V  0.99822800  0.50768908  0.71839161     1.35200
C185        C  0.05889170  0.57486077  0.76064726     0.77100
C186        C  0.93347443  0.43917948  0.75092021     0.77200
C187        C  0.06499991  0.44410771  0.75761652     0.77100
C188        C  0.92867457  0.56911478  0.75533283     0.77000
O189        O  0.55871556  0.29057690  0.94647806    -0.72100
O190        O  0.46146257  0.29080456  0.04338017    -0.72300
O191        O  0.55896773  0.28685672  0.04433748    -0.72200
O192        O  0.46170430  0.29369169  0.94572065    -0.72200
O193        O  0.45560697  0.21517094  0.94687237    -0.72100
O194        O  0.55930791  0.20834819  0.03767626    -0.72200
O195        O  0.46168484  0.21213511  0.04419157    -0.72100
O196        O  0.55319591  0.21230222  0.94029683    -0.72300
V197        V  0.51022744  0.28895921  0.99498888     1.35200
V198        V  0.50751713  0.21344187  0.99235054     1.35200
C199        C  0.57144460  0.25185673  0.92571806     0.77100
C200        C  0.44555275  0.25169487  0.06103099     0.77200
C201        C  0.57630226  0.24629737  0.05696789     0.77100
C202        C  0.44137237  0.25545879  0.93038487     0.77000
O203        O  0.44318689  0.78489610  0.05520797    -0.72100
O204        O  0.54412458  0.78720192  0.96115686    -0.72300
O205        O  0.44658537  0.78983879  0.95795249    -0.72200
O206        O  0.54087221  0.78219803  0.05853006    -0.72200
O207        O  0.54207575  0.70380018  0.05097075    -0.72100
O208        O  0.44033338  0.71145099  0.95762613    -0.72200
O209        O  0.53770438  0.70908265  0.95306630    -0.72100
O210        O  0.44497688  0.70613138  0.05514447    -0.72300
V211        V  0.49363840  0.78454669  0.00815952     1.35200
V212        V  0.49137312  0.70907710  0.00423968     1.35200
C213        C  0.42753929  0.74508798  0.07171751     0.77100
C214        C  0.55718490  0.74858305  0.94025700     0.77200
C215        C  0.42677371  0.75199316  0.94109321     0.77100
C216        C  0.55842775  0.74174607  0.07100883     0.77000
C217        C  0.32030220  0.23957880  0.86595812    -0.20600
C218        C  0.33008306  0.26089893  0.82070302    -0.07200
C219        C  0.37626303  0.28154752  0.81210986     0.13700
C220        C  0.41143957  0.28017837  0.84899250    -0.20700
C221        C  0.40218396  0.25759841  0.89370725    -0.07200
C222        C  0.35600573  0.23707735  0.90236015     0.13700
C223        C  0.34380628  0.21391045  0.95043966    -0.24000
H224        H  0.28458076  0.22472987  0.87273602     0.15000
H225        H  0.44659621  0.29619257  0.84239477     0.15000
C226        C  0.38961548  0.30555705  0.76471089    -0.24000
H227        H  0.30557687  0.20120864  0.95158535     0.05200
H228        H  0.34904944  0.24065539  0.98017630     0.08400
H229        H  0.36752945  0.18209317  0.95683643     0.08400
H230        H  0.40043927  0.34372421  0.77164244     0.08400
H231        H  0.35944891  0.30583240  0.73802691     0.08400
H232        H  0.42069890  0.28614134  0.74809062     0.05200
C233        C  0.14673666  0.41849478  0.73009575    -0.20600
C234        C  0.10514244  0.40825041  0.75782402    -0.07200
C235        C  0.10291486  0.36376810  0.78357215     0.13700
C236        C  0.13979215  0.32952237  0.77720055    -0.20700
C237        C  0.18141938  0.33992799  0.75016338    -0.07200
C238        C  0.18568448  0.38565807  0.72755829     0.13700
C239        C  0.23124385  0.40011907  0.70128491    -0.24000
H240        H  0.14921205  0.45284397  0.71120181     0.15000
H241        H  0.13611838  0.29421387  0.79389048     0.15000
C242        C  0.06280362  0.35024058  0.81799301    -0.24000
H243        H  0.22873100  0.43740629  0.68629109     0.05200
H244        H  0.23792372  0.37502676  0.67079014     0.08400
H245        H  0.26253489  0.39893380  0.72660187     0.08400
H246        H  0.04564843  0.31592710  0.80572400     0.08400
H247        H  0.03459528  0.37823611  0.82123679     0.08400
H248        H  0.07818248  0.34435881  0.85485899     0.05200
C249        C  0.21821390  0.11469388  0.63905673    -0.20600
C250        C  0.25214235  0.11568093  0.60098820    -0.07200
C251        C  0.28506703  0.15492839  0.59797524     0.13700
C252        C  0.28353849  0.19165659  0.63315640    -0.20700
C253        C  0.25084056  0.18989907  0.67205686    -0.07200
C254        C  0.21772928  0.15078182  0.67515402     0.13700
C255        C  0.18217779  0.14537287  0.71637544    -0.24000
H256        H  0.19277515  0.08480101  0.64148533     0.15000
H257        H  0.30842759  0.22191747  0.63053339     0.15000
C258        C  0.32063881  0.15947294  0.55674918    -0.24000
H259        H  0.18867594  0.11044825  0.73531881     0.05200
H260        H  0.14464002  0.14538451  0.70169835     0.08400
H261        H  0.18516135  0.17474699  0.74370054     0.08400
H262        H  0.30048362  0.15958869  0.52181130     0.08400
H263        H  0.34677328  0.12896181  0.55752805     0.08400
H264        H  0.34191327  0.19363038  0.55895933     0.05200
C265        C  0.31231962  0.76537603  0.14416994    -0.20600
C266        C  0.32457541  0.74328940  0.18848781    -0.07200
C267        C  0.36999589  0.72002399  0.19337218     0.13700
C268        C  0.40247801  0.72061076  0.15422779    -0.20700
C269        C  0.39086117  0.74405132  0.11056268    -0.07200
C270        C  0.34500767  0.76609740  0.10506025     0.13700
C271        C  0.32995876  0.78888498  0.05757086    -0.24000
H272        H  0.27698772  0.78211184  0.14030129     0.15000
H273        H  0.43750800  0.70317959  0.15806739     0.15000
C274        C  0.38523344  0.69379818  0.23892214    -0.24000
H275        H  0.29224709  0.80289927  0.05910444     0.05200
H276        H  0.33183822  0.76153687  0.02797012     0.08400
H277        H  0.35433190  0.81967345  0.04874267     0.08400
H278        H  0.39340507  0.65539909  0.23005944     0.08400
H279        H  0.35692425  0.69404225  0.26746401     0.08400
H280        H  0.41850699  0.71093389  0.25385528     0.05200
C281        C  0.27043541  0.81319023  0.38438289    -0.20600
C282        C  0.25326815  0.82185134  0.33712520    -0.07200
C283        C  0.23523274  0.86834569  0.32501942     0.13700
C284        C  0.23564864  0.90509764  0.36028716    -0.20700
C285        C  0.25396069  0.89671711  0.40709521    -0.07200
C286        C  0.27144385  0.85022635  0.41941954     0.13700
C287        C  0.28968224  0.83925657  0.46990223    -0.24000
H288        H  0.28321206  0.77726464  0.39378750     0.15000
H289        H  0.22183464  0.94072131  0.35106928     0.15000
C290        C  0.21435635  0.88023227  0.27574705    -0.24000
H291        H  0.30069137  0.80073680  0.47371180     0.05200
H292        H  0.26058793  0.84660284  0.49678924     0.08400
H293        H  0.32170303  0.86220423  0.47832000     0.08400
H294        H  0.17636004  0.89278026  0.28001147     0.08400
H295        H  0.21398127  0.84879751  0.25065626     0.08400
H296        H  0.23592083  0.90971372  0.25874119     0.05200
C297        C  0.15105653  0.58580601  0.27619695    -0.20600
C298        C  0.10424440  0.59891927  0.26151368    -0.07200
C299        C  0.09400111  0.64778998  0.25060667     0.13700
C300        C  0.13111229  0.68254902  0.25449330    -0.20700
C301        C  0.17842149  0.66939580  0.26810050    -0.07200
C302        C  0.18845881  0.62020125  0.27918018     0.13700
C303        C  0.23788933  0.60242419  0.29430765    -0.24000
H304        H  0.15868440  0.54818969  0.28472907     0.15000
H305        H  0.12347147  0.72011862  0.24596188     0.15000
C306        C  0.04381425  0.66330136  0.23559138    -0.24000
H307        H  0.23558032  0.58482199  0.33052520     0.05200
H308        H  0.26516135  0.63183919  0.29662169     0.08400
H309        H  0.25086966  0.57503971  0.26776761     0.08400
H310        H  0.01743631  0.65379030  0.26457436     0.08400
H311        H  0.03328836  0.64470370  0.20134636     0.08400
H312        H  0.04181691  0.70301164  0.22928571     0.05200
C313        C  0.66170782  0.22755548  0.07760287    -0.20600
C314        C  0.61582559  0.24289005  0.09306688    -0.07200
C315        C  0.60806230  0.25278752  0.14277729     0.13700
C316        C  0.64629382  0.24734916  0.17591454    -0.20700
C317        C  0.69250291  0.23297926  0.16051879    -0.07200
C318        C  0.70038897  0.22293636  0.11055885     0.13700
C319        C  0.74866040  0.20694714  0.09065092    -0.24000
H320        H  0.66751949  0.21954771  0.03941967     0.15000
H321        H  0.64043449  0.25531924  0.21407799     0.15000
C322        C  0.55961944  0.26946761  0.16091507    -0.24000
H323        H  0.74466753  0.17118931  0.07259504     0.05200
H324        H  0.77686991  0.20352942  0.11915592     0.08400
H325        H  0.76139935  0.23350057  0.06312303     0.08400
H326        H  0.53103557  0.24300032  0.15049352     0.08400
H327        H  0.55186277  0.30534744  0.14467970     0.08400
H328        H  0.55908192  0.27352748  0.20112110     0.05200
C329        C  0.82703529  0.34989064  0.26499929    -0.20600
C330        C  0.83911679  0.30814174  0.23868205    -0.07200
C331        C  0.88478972  0.30522425  0.21558794     0.13700
C332        C  0.91712972  0.34437168  0.21930755    -0.20700
C333        C  0.90548890  0.38571059  0.24655564    -0.07200
C334        C  0.85990351  0.38843216  0.26977767     0.13700
C335        C  0.84521431  0.43244951  0.29833478    -0.24000
H336        H  0.79176227  0.35204955  0.28223347     0.15000
H337        H  0.95202343  0.34228492  0.20134146     0.15000
C338        C  0.90052433  0.26160386  0.18675919    -0.24000
H339        H  0.86981500  0.43707383  0.32996601     0.05200
H340        H  0.80760290  0.42932899  0.31243772     0.08400
H341        H  0.84706715  0.46489498  0.27452560     0.08400
H342        H  0.90882918  0.27270285  0.14884668     0.08400
H343        H  0.87246852  0.23284805  0.18529104     0.08400
H344        H  0.93376788  0.24606372  0.20334677     0.05200
C345        C  0.74074933  0.13555777  0.39482253    -0.20600
C346        C  0.75955599  0.08909962  0.38680315    -0.07200
C347        C  0.78027606  0.07797420  0.34119520     0.13700
C348        C  0.78116800  0.11329266  0.30448284    -0.20700
C349        C  0.76329519  0.16003676  0.31277008    -0.07200
C350        C  0.74282254  0.17139768  0.35865263     0.13700
C351        C  0.72199942  0.22045733  0.37051703    -0.24000
H352        H  0.72472727  0.14411233  0.42980049     0.15000
H353        H  0.79620610  0.10457049  0.26914094     0.15000
C354        C  0.80080067  0.02872169  0.33090506    -0.24000
H355        H  0.74230744  0.23661812  0.40144256     0.05200
H356        H  0.68340873  0.21641715  0.38129571     0.08400
H357        H  0.72347793  0.24595774  0.33941075     0.08400
H358        H  0.77232130  0.00077813  0.33654412     0.08400
H359        H  0.83189204  0.02217854  0.35567439     0.08400
H360        H  0.81414766  0.02556068  0.29292712     0.05200
C361        C  0.61840957  0.73592369  0.81769673    -0.20600
C362        C  0.66579578  0.75073215  0.82846875    -0.07200
C363        C  0.67699626  0.76723651  0.87592500     0.13700
C364        C  0.64067084  0.76683143  0.91172973    -0.20700
C365        C  0.59388869  0.74964630  0.90131039    -0.07200
C366        C  0.58262364  0.73426476  0.85366940     0.13700
C367        C  0.53284776  0.71625031  0.84053243    -0.24000
H368        H  0.60968992  0.72432788  0.78109348     0.15000
H369        H  0.64914911  0.77928872  0.94816496     0.15000
C370        C  0.72643979  0.78605774  0.88976377    -0.24000
H371        H  0.52972776  0.70759411  0.80117881     0.05200
H372        H  0.50541582  0.74432289  0.84935410     0.08400
H373        H  0.52521950  0.68261511  0.86122278     0.08400
H374        H  0.72319119  0.82392204  0.90304255     0.08400
H375        H  0.75230846  0.78606420  0.85894197     0.08400
H376        H  0.74177816  0.76325669  0.91928182     0.05200
C377        C  0.85901191  0.68688694  0.76999150    -0.20600
C378        C  0.81315805  0.67383945  0.75180492    -0.07200
C379        C  0.80585142  0.62619958  0.73404972     0.13700
C380        C  0.84413697  0.59271443  0.73586721    -0.20700
C381        C  0.88957964  0.60563247  0.75473908    -0.07200
C382        C  0.89725770  0.65329514  0.77178934     0.13700
C383        C  0.94610861  0.66895779  0.79076179    -0.24000
H384        H  0.86473365  0.72353584  0.78301522     0.15000
H385        H  0.83849182  0.55620863  0.72233370     0.15000
C386        C  0.75866493  0.60975971  0.71191177    -0.24000
H387        H  0.94622973  0.70770516  0.80173017     0.05200
H388        H  0.97395534  0.66399409  0.76203616     0.08400
H389        H  0.95604006  0.64688935  0.82301744     0.08400
H390        H  0.76516687  0.59693710  0.67419238     0.08400
H391        H  0.73129452  0.63901416  0.71007229     0.08400
H392        H  0.74361191  0.57934834  0.73362260     0.05200
C393        C  0.75172973  0.86827479  0.68870805    -0.20600
C394        C  0.73671156  0.82139047  0.67597871    -0.07200
C395        C  0.72282286  0.81167691  0.62731354     0.13700
C396        C  0.72470328  0.84913786  0.59277271    -0.20700
C397        C  0.74131575  0.89554258  0.60531149    -0.07200
C398        C  0.75505005  0.90514763  0.65380762     0.13700
C399        C  0.77392270  0.95398295  0.66865420    -0.24000
H400        H  0.76224874  0.87564894  0.72599429     0.15000
H401        H  0.71415922  0.84176333  0.55546019     0.15000
C402        C  0.70601015  0.76247671  0.61043585    -0.24000
H403        H  0.78105000  0.95608029  0.70838622     0.05200
H404        H  0.74715066  0.98247278  0.65908879     0.08400
H405        H  0.80862943  0.96051762  0.64944052     0.08400
H406        H  0.66911175  0.76537996  0.59455226     0.08400
H407        H  0.70467398  0.73540096  0.64014512     0.08400
H408        H  0.73100168  0.74882971  0.58193461     0.05200
C409        C  0.72794338  0.38473168  0.13559975    -0.20600
C410        C  0.75830234  0.38409597  0.09466835    -0.07200
C411        C  0.79225068  0.34608463  0.08920314     0.13700
C412        C  0.79493974  0.30982845  0.12477945    -0.20700
C413        C  0.76408952  0.30994974  0.16515783    -0.07200
C414        C  0.73087602  0.34848118  0.17131308     0.13700
C415        C  0.69885639  0.35299760  0.21547060    -0.24000
H416        H  0.70248791  0.41427875  0.14029571     0.15000
H417        H  0.82062535  0.28052086  0.12054544     0.15000
C418        C  0.82428363  0.34224378  0.04495858    -0.24000
H419        H  0.70680321  0.38774580  0.23428156     0.05200
H420        H  0.70432316  0.32333487  0.24209678     0.08400
H421        H  0.66022291  0.35278559  0.20405055     0.08400
H422        H  0.84996536  0.37319171  0.04367879     0.08400
H423        H  0.80158877  0.34196230  0.01155519     0.08400
H424        H  0.84611911  0.30844948  0.04529933     0.05200
C425        C  0.70535700  0.60199608  0.86677369    -0.20600
C426        C  0.74517414  0.60077691  0.89865655    -0.07200
C427        C  0.78248798  0.63584583  0.89318599     0.13700
C428        C  0.77699466  0.67282816  0.85876274    -0.20700
C429        C  0.73799104  0.67317828  0.82613037    -0.07200
C430        C  0.70231008  0.63637322  0.82932980     0.13700
C431        C  0.66181732  0.63070052  0.79293030    -0.24000
H432        H  0.67743850  0.57439484  0.86952053     0.15000
H433        H  0.80436937  0.70092818  0.85598978     0.15000
C434        C  0.82866251  0.63461977  0.92246294    -0.24000
H435        H  0.66396251  0.59428327  0.77590128     0.05200
H436        H  0.66338005  0.65784677  0.76331841     0.08400
H437        H  0.62633981  0.63381500  0.81169980     0.08400
H438        H  0.84927785  0.60118387  0.91392214     0.08400
H439        H  0.82017453  0.63571502  0.96161087     0.08400
H440        H  0.85267014  0.66593209  0.91422298     0.05200
C441        C  0.22396685  0.36834131  0.90030147    -0.20600
C442        C  0.25793071  0.40623869  0.89841119    -0.07200
C443        C  0.29373601  0.40577994  0.86147640     0.13700
C444        C  0.29044488  0.37146465  0.82407933    -0.20700
C445        C  0.25575667  0.33444846  0.82536041    -0.07200
C446        C  0.22439690  0.33088672  0.86585890     0.13700
C447        C  0.19304472  0.28715796  0.87533285    -0.24000
H448        H  0.19828083  0.36674110  0.93010466     0.15000
H449        H  0.31594023  0.37268712  0.79418909     0.15000
C450        C  0.33574470  0.44064342  0.86112406    -0.24000
H451        H  0.20404074  0.27036768  0.91035182     0.05200
H452        H  0.19640247  0.25909680  0.84666123     0.08400
H453        H  0.15451310  0.29826060  0.87826940     0.08400
H454        H  0.35867281  0.43474495  0.89380723     0.08400
H455        H  0.32215894  0.47816009  0.86092718     0.08400
H456        H  0.35916561  0.43573868  0.82864580     0.05200
C457        C  0.28160678  0.63450881  0.18889187    -0.20600
C458        C  0.24810535  0.67246450  0.18908240    -0.07200
C459        C  0.21446578  0.67671293  0.15043367     0.13700
C460        C  0.21444364  0.64176119  0.11329186    -0.20700
C461        C  0.24866372  0.60417520  0.11284136    -0.07200
C462        C  0.28274205  0.60060886  0.15117697     0.13700
C463        C  0.31965645  0.56046578  0.15343577    -0.24000
H464        H  0.30733820  0.63157894  0.21846216     0.15000
H465        H  0.18871454  0.64490490  0.08359103     0.15000
C466        C  0.17946597  0.71839491  0.14635536    -0.24000
H467        H  0.34106124  0.56156935  0.18768584     0.05200
H468        H  0.34558695  0.56372967  0.12279048     0.08400
H469        H  0.30085285  0.52500109  0.15169613     0.08400
H470        H  0.18316367  0.74491981  0.17641734     0.08400
H471        H  0.14171580  0.70433622  0.14637562     0.08400
H472        H  0.18602825  0.73804109  0.11172236     0.05200
C473        C  0.35629466  0.10914384  0.77449382    -0.20600
C474        C  0.39520472  0.11196739  0.74173576    -0.07200
C475        C  0.39870463  0.15222322  0.71014728     0.13700
C476        C  0.36484899  0.18985281  0.71412940    -0.20700
C477        C  0.32544760  0.18655562  0.74610915    -0.07200
C478        C  0.32057862  0.14523731  0.77610944     0.13700
C479        C  0.27810448  0.13773397  0.80971663    -0.24000
H480        H  0.35318335  0.07797546  0.79833359     0.15000
H481        H  0.36858886  0.22175989  0.69148890     0.15000
C482        C  0.43824524  0.15611167  0.67268767    -0.24000
H483        H  0.29129894  0.13445857  0.84775116     0.05200
H484        H  0.25893937  0.10376286  0.79962974     0.08400
H485        H  0.25146273  0.16770708  0.80819981     0.08400
H486        H  0.43461076  0.12628936  0.64583744     0.08400
H487        H  0.47401468  0.15368906  0.69068596     0.08400
H488        H  0.43663155  0.19096495  0.65252996     0.05200
C489        C  0.67130243  0.86295970  0.78396207    -0.20600
C490        C  0.66423061  0.82342192  0.75271209    -0.07200
C491        C  0.62236212  0.82198877  0.72307716     0.13700
C492        C  0.59010126  0.86123187  0.72356486    -0.20700
C493        C  0.59733534  0.90135253  0.75420641    -0.07200
C494        C  0.63848124  0.90186779  0.78541666     0.13700
C495        C  0.65053773  0.94284710  0.81966393    -0.24000
H496        H  0.70324276  0.86374370  0.80702092     0.15000
H497        H  0.55825243  0.85993354  0.70039895     0.15000
C498        C  0.60981549  0.77921474  0.69146613    -0.24000
H499        H  0.65086052  0.92908329  0.85761750     0.05200
H500        H  0.62505512  0.97357457  0.81786166     0.08400
H501        H  0.68718454  0.95713240  0.81092584     0.08400
H502        H  0.57395446  0.76453037  0.70250893     0.08400
H503        H  0.63651144  0.74940865  0.69434893     0.08400
H504        H  0.60762251  0.79099744  0.65294579     0.05200
C505        C  0.34176678  0.73083052  0.83311308    -0.20600
C506        C  0.30851192  0.76859469  0.83967377    -0.07200
C507        C  0.31494676  0.80098900  0.87895794     0.13700
C508        C  0.35448969  0.79472346  0.91037959    -0.20700
C509        C  0.38716332  0.75608854  0.90476769    -0.07200
C510        C  0.38046795  0.72346540  0.86534687     0.13700
C511        C  0.41313245  0.68110051  0.85459728    -0.24000
H512        H  0.33723648  0.70651692  0.80242028     0.15000
H513        H  0.35899742  0.81966228  0.94057040     0.15000
C514        C  0.28064002  0.84195094  0.88958618    -0.24000
H515        H  0.39162287  0.64704783  0.85570115     0.05200
H516        H  0.44356341  0.67720529  0.88019464     0.08400
H517        H  0.42870534  0.68527667  0.81757869     0.08400
H518        H  0.26631763  0.83827230  0.92712649     0.08400
H519        H  0.24930450  0.84271009  0.86448227     0.08400
H520        H  0.30039463  0.87692130  0.88686042     0.05200
C521        C  0.16683136  0.65709391  0.73450154    -0.20600
C522        C  0.15833577  0.69544592  0.76682523    -0.07200
C523        C  0.11719492  0.69371144  0.79745207     0.13700
C524        C  0.08638212  0.65317593  0.79571508    -0.20700
C525        C  0.09425963  0.61532304  0.76256505    -0.07200
C526        C  0.13489066  0.61759738  0.73117527     0.13700
C527        C  0.14569235  0.57801978  0.69499500    -0.24000
H528        H  0.19884021  0.65815565  0.71168684     0.15000
H529        H  0.05503130  0.65188279  0.81946256     0.15000
C530        C  0.10401261  0.73421250  0.83155055    -0.24000
H531        H  0.18039515  0.58454844  0.67556979     0.05200
H532        H  0.11659345  0.57622415  0.66713602     0.08400
H533        H  0.14852170  0.54272381  0.71411115     0.08400
H534        H  0.10301315  0.72026085  0.86938084     0.08400
H535        H  0.06746160  0.74813761  0.82204394     0.08400
H536        H  0.12974343  0.76498838  0.82984941     0.05200
C537        C  0.20585307  0.88164832  0.68869946    -0.20600
C538        C  0.23564015  0.84058783  0.68829240    -0.07200
C539        C  0.26767875  0.83315086  0.64887957     0.13700
C540        C  0.27061816  0.86821978  0.61204389    -0.20700
C541        C  0.24121182  0.90966712  0.61281013    -0.07200
C542        C  0.20832470  0.91643425  0.65162952     0.13700
C543        C  0.17739552  0.96126147  0.65541786    -0.24000
H544        H  0.18113693  0.88699839  0.71875665     0.15000
H545        H  0.29555380  0.86275472  0.58207925     0.15000
C546        C  0.29854485  0.78838843  0.64410808    -0.24000
H547        H  0.15594741  0.96176277  0.68959716     0.05200
H548        H  0.15147090  0.96282432  0.62457474     0.08400
H549        H  0.20089371  0.99397665  0.65507539     0.08400
H550        H  0.29323597  0.76236781  0.67435443     0.08400
H551        H  0.33741811  0.79888713  0.64321235     0.08400
H552        H  0.28930050  0.76941924  0.60967206     0.05200
C553        C  0.25079987  0.65107542  0.82506901    -0.20600
C554        C  0.23270564  0.69573808  0.84126491    -0.07200
C555        C  0.21915724  0.70081056  0.89069881     0.13700
C556        C  0.22345833  0.66092616  0.92220963    -0.20700
C557        C  0.24226708  0.61660896  0.90600654    -0.07200
C558        C  0.25625832  0.61175195  0.85692310     0.13700
C559        C  0.27728114  0.56526171  0.83816947    -0.24000
H560        H  0.26177492  0.64740179  0.78739932     0.15000
H561        H  0.21275343  0.66468735  0.95997488     0.15000
C562        C  0.20036540  0.74748581  0.91164672    -0.24000
H563        H  0.28466662  0.56688951  0.79848627     0.05200
H564        H  0.25169554  0.53486860  0.84495547     0.08400
H565        H  0.31212893  0.55863034  0.85715289     0.08400
H566        H  0.16409648  0.74139545  0.92799430     0.08400
H567        H  0.19693883  0.77645790  0.88405669     0.08400
H568        H  0.22535320  0.76013066  0.94069484     0.05200
C569        C  0.35521270  0.82730442  0.75006526    -0.20600
C570        C  0.30918729  0.84369908  0.76459606    -0.07200
C571        C  0.30312456  0.89350964  0.77589006     0.13700
C572        C  0.34309566  0.92508095  0.77282447    -0.20700
C573        C  0.38881774  0.90858912  0.75804793    -0.07200
C574        C  0.39497503  0.85915602  0.74644781     0.13700
C575        C  0.44372117  0.83989361  0.73117921    -0.24000
H576        H  0.35994523  0.78931353  0.74128948     0.15000
H577        H  0.33838069  0.96312924  0.78153773     0.15000
C578        C  0.25538145  0.91479708  0.79166408    -0.24000
H579        H  0.44253917  0.80023508  0.72431806     0.05200
H580        H  0.47081748  0.84687260  0.76029351     0.08400
H581        H  0.45564553  0.85807401  0.69720778     0.08400
H582        H  0.22609278  0.88741686  0.79425483     0.08400
H583        H  0.24401713  0.94308834  0.76530851     0.08400
H584        H  0.25951850  0.93198474  0.82794373     0.05200
C585        C  0.13695640  0.71466598  0.41183562    -0.20600
C586        C  0.10127977  0.75073859  0.40797970    -0.07200
C587        C  0.10609705  0.78656123  0.37131241     0.13700
C588        C  0.14387786  0.78274224  0.33736767    -0.20700
C589        C  0.17930349  0.74660332  0.34125985    -0.07200
C590        C  0.17684301  0.71338349  0.38029057     0.13700
C591        C  0.21626231  0.67730017  0.39086867    -0.24000
H592        H  0.13470306  0.68816922  0.44089297     0.15000
H593        H  0.14605584  0.80836585  0.30762786     0.15000
C594        C  0.07181239  0.82875079  0.36720074    -0.24000
H595        H  0.23032231  0.68338000  0.42824933     0.05200
H596        H  0.24737778  0.68060975  0.36567811     0.08400
H597        H  0.20118336  0.64005670  0.38869931     0.08400
H598        H  0.07444424  0.85169128  0.40026354     0.08400
H599        H  0.03429559  0.81542338  0.36289323     0.08400
H600        H  0.08034847  0.85208075  0.33539480     0.05200
C601        C  0.88731292  0.78022520  0.64296926    -0.20600
C602        C  0.88697489  0.74400584  0.60710452    -0.07200
C603        C  0.84955921  0.70885703  0.60726118     0.13700
C604        C  0.81271262  0.71194389  0.64220944    -0.20700
C605        C  0.81312787  0.74809278  0.67804066    -0.07200
C606        C  0.85172502  0.78186513  0.67929312     0.13700
C607        C  0.85761048  0.81882701  0.71923583    -0.24000
H608        H  0.91649210  0.80663200  0.64357534     0.15000
H609        H  0.78342338  0.68574478  0.64187240     0.15000
C610        C  0.84741044  0.66878354  0.57013380    -0.24000
H611        H  0.89305942  0.81329159  0.73761018     0.05200
H612        H  0.82903779  0.81625678  0.74741833     0.08400
H613        H  0.85687499  0.85584886  0.70342786     0.08400
H614        H  0.87938710  0.64475649  0.57414761     0.08400
H615        H  0.84681615  0.68454871  0.53309204     0.08400
H616        H  0.81441964  0.64602718  0.57447956     0.05200
C617        C  0.08216883  0.78793882  0.65304493    -0.20600
C618        C  0.09271929  0.75839679  0.61288151    -0.07200
C619        C  0.13772070  0.73396378  0.61100617     0.13700
C620        C  0.17092744  0.73973217  0.64940096    -0.20700
C621        C  0.15969722  0.76803519  0.69027890    -0.07200
C622        C  0.11474931  0.79254476  0.69207371     0.13700
C623        C  0.09990866  0.82369245  0.73449659    -0.24000
H624        H  0.04771949  0.80679393  0.65448628     0.15000
H625        H  0.20568741  0.72153076  0.64791859     0.15000
C626        C  0.15141189  0.70284115  0.56811208    -0.24000
H627        H  0.09275441  0.86114991  0.72162097     0.05200
H628        H  0.12797520  0.82561500  0.76331372     0.08400
H629        H  0.06619434  0.80891777  0.75083864     0.08400
H630        H  0.14975032  0.72458823  0.53415761     0.08400
H631        H  0.12623874  0.67155496  0.56519387     0.08400
H632        H  0.18875511  0.68823907  0.57175370     0.05200
C633        C  0.67375745  0.76282391  0.14437706    -0.20600
C634        C  0.66607734  0.73192633  0.18412113    -0.07200
C635        C  0.62296677  0.70424220  0.18637794     0.13700
C636        C  0.58912747  0.70749728  0.14830470    -0.20700
C637        C  0.59661027  0.73870832  0.10868043    -0.07200
C638        C  0.63974412  0.76658273  0.10656911     0.13700
C639        C  0.65217394  0.79938396  0.06450707    -0.24000
H640        H  0.70691049  0.78391823  0.14265380     0.15000
H641        H  0.55595413  0.68640159  0.15022548     0.15000
C642        C  0.61094249  0.67194208  0.22885329    -0.24000
H643        H  0.65551648  0.83728672  0.07770062     0.05200
H644        H  0.62507140  0.79849958  0.03483336     0.08400
H645        H  0.68739375  0.78806195  0.04861924     0.08400
H646        H  0.60686897  0.63400782  0.21601767     0.08400
H647        H  0.63898871  0.67277427  0.25772711     0.08400
H648        H  0.57622078  0.68384729  0.24538320     0.05200
C649        C  0.81794938  0.62145709  0.29300727    -0.20600
C650        C  0.81689428  0.65809970  0.25781040    -0.07200
C651        C  0.85583576  0.66196038  0.22462648     0.13700
C652        C  0.89305534  0.62727419  0.22571656    -0.20700
C653        C  0.89422482  0.59030803  0.26094658    -0.07200
C654        C  0.85624857  0.58814904  0.29586695     0.13700
C655        C  0.85325948  0.55147702  0.33640867    -0.24000
H656        H  0.78847678  0.61897747  0.31890092     0.15000
H657        H  0.92238216  0.63012857  0.19961267     0.15000
C658        C  0.86041153  0.70313994  0.18892913    -0.24000
H659        H  0.81831333  0.53157542  0.33379210     0.05200
H660        H  0.85445139  0.57060886  0.37194857     0.08400
H661        H  0.88235687  0.52424608  0.33621998     0.08400
H662        H  0.89501251  0.72271358  0.19557115     0.08400
H663        H  0.83068706  0.72991908  0.19205409     0.08400
H664        H  0.86066048  0.68859473  0.15126533     0.05200
C665        C  0.78058506  0.83750741  0.33248669    -0.20600
C666        C  0.74145028  0.80509770  0.33390427    -0.07200
C667        C  0.70653914  0.80979529  0.37127237     0.13700
C668        C  0.70979284  0.84905800  0.40361540    -0.20700
C669        C  0.74953867  0.88099829  0.40267916    -0.07200
C670        C  0.78688711  0.87307041  0.36829342     0.13700
C671        C  0.83384277  0.90093691  0.36924430    -0.24000
H672        H  0.80727857  0.83394094  0.30386556     0.15000
H673        H  0.68195224  0.85361698  0.43105940     0.15000
C674        C  0.66654284  0.77343541  0.37928375    -0.24000
H675        H  0.85816860  0.89057205  0.33879320     0.05200
H676        H  0.85340881  0.89337119  0.40372791     0.08400
H677        H  0.82662458  0.94007951  0.36643605     0.08400
H678        H  0.66993613  0.75785859  0.41636753     0.08400
H679        H  0.66764042  0.74297250  0.35305479     0.08400
H680        H  0.63080547  0.79166547  0.37632127     0.05200
C681        C  0.75567250  0.67168421  0.13782161    -0.20600
C682        C  0.74031967  0.65675858  0.18402014    -0.07200
C683        C  0.72778915  0.60758074  0.19174783     0.13700
C684        C  0.73106625  0.57472872  0.15286430    -0.20700
C685        C  0.74760277  0.58964457  0.10702811    -0.07200
C686        C  0.76001751  0.63863672  0.09945923     0.13700
C687        C  0.77795602  0.65609892  0.05099415    -0.24000
H688        H  0.76528461  0.70934202  0.13205111     0.15000
H689        H  0.72105638  0.53710814  0.15846227     0.15000
C690        C  0.71058393  0.58859713  0.24013544    -0.24000
H691        H  0.78450927  0.69583588  0.05078241     0.05200
H692        H  0.75087722  0.64761886  0.02225818     0.08400
H693        H  0.81277984  0.63777779  0.04296872     0.08400
H694        H  0.67394934  0.57239057  0.23590414     0.08400
H695        H  0.70835540  0.61711916  0.26840207     0.08400
H696        H  0.73588521  0.56014752  0.25319900     0.05200
C697        C  0.85902741  0.75161953  0.32122717    -0.20600
C698        C  0.81483714  0.72977880  0.33363229    -0.07200
C699        C  0.80901623  0.70921967  0.38035231     0.13700
C700        C  0.84750847  0.71177034  0.41370195    -0.20700
C701        C  0.89086489  0.73574024  0.40206411    -0.07200
C702        C  0.89665260  0.75588296  0.35524370     0.13700
C703        C  0.94266516  0.78125134  0.34082891    -0.24000
H704        H  0.86349921  0.76655984  0.28502505     0.15000
H705        H  0.84317452  0.69588608  0.44942163     0.15000
C706        C  0.76301213  0.68423446  0.39604635    -0.24000
H707        H  0.94803205  0.81361182  0.36420888     0.05200
H708        H  0.94162595  0.79365420  0.30239723     0.08400
H709        H  0.97371513  0.75602192  0.34502380     0.08400
H710        H  0.73515422  0.68311944  0.36697876     0.08400
H711        H  0.74750328  0.70345837  0.42789766     0.08400
H712        H  0.77124964  0.64630011  0.40666811     0.05200
C713        C  0.32412919  0.85432693  0.22650053    -0.20600
C714        C  0.32819838  0.81835353  0.26234128    -0.07200
C715        C  0.36831579  0.81930784  0.29445831     0.13700
C716        C  0.40273122  0.85660980  0.29027845    -0.20700
C717        C  0.39901694  0.89224494  0.25398951    -0.07200
C718        C  0.35900616  0.89115212  0.22178997     0.13700
C719        C  0.35175854  0.92969885  0.18370679    -0.24000
H720        H  0.29325508  0.85359762  0.20209277     0.15000
H721        H  0.43328121  0.85732602  0.31512821     0.15000
C722        C  0.37653033  0.78135627  0.33298350    -0.24000
H723        H  0.31713317  0.92466191  0.16362133     0.05200
H724        H  0.38165686  0.92850465  0.15678289     0.08400
H725        H  0.35083627  0.96583615  0.20134275     0.08400
H726        H  0.34825778  0.75280079  0.33310788     0.08400
H727        H  0.37700583  0.79879933  0.36937680     0.08400
H728        H  0.41210636  0.76359889  0.32689625     0.05200
C729        C  0.65661738  0.16248514  0.27296550    -0.20600
C730        C  0.69106611  0.15834288  0.23587516    -0.07200
C731        C  0.68721666  0.11956328  0.20247962     0.13700
C732        C  0.64728605  0.08800353  0.20533479    -0.20700
C733        C  0.61357848  0.09127545  0.24352088    -0.07200
C734        C  0.61998352  0.12786014  0.27917523     0.13700
C735        C  0.58927263  0.13070786  0.32429048    -0.24000
H736        H  0.65927511  0.19248264  0.29811728     0.15000
H737        H  0.64380911  0.05912311  0.17878760     0.15000
C738        C  0.72526928  0.10921063  0.16476952    -0.24000
H739        H  0.59868014  0.16260994  0.34711913     0.05200
H740        H  0.59490072  0.09782767  0.34683406     0.08400
H741        H  0.55075315  0.13363814  0.31418928     0.08400
H742        H  0.75660284  0.13422790  0.16715884     0.08400
H743        H  0.70892957  0.11177377  0.12795095     0.08400
H744        H  0.73936488  0.07191013  0.17006651     0.05200
C745        C  0.62225258  0.80147788  0.27332766    -0.20600
C746        C  0.66954956  0.80828301  0.25596943    -0.07200
C747        C  0.68261455  0.85347251  0.23537330     0.13700
C748        C  0.64834905  0.89108672  0.23405352    -0.20700
C749        C  0.60174657  0.88479203  0.25344946    -0.07200
C750        C  0.58846399  0.83943410  0.27314566     0.13700
C751        C  0.53827043  0.83066754  0.29286043    -0.24000
H752        H  0.61189869  0.76636961  0.28757142     0.15000
H753        H  0.65823269  0.92571779  0.21823357     0.15000
C754        C  0.73197391  0.86295829  0.21384556    -0.24000
H755        H  0.53362720  0.79283800  0.30588127     0.05200
H756        H  0.51103282  0.83736231  0.26385858     0.08400
H757        H  0.53128318  0.85532589  0.32396928     0.08400
H758        H  0.75626439  0.83104141  0.21559898     0.08400
H759        H  0.74970911  0.89322586  0.23371350     0.08400
H760        H  0.72795378  0.87323909  0.17499062     0.05200
C761        C  0.63701316  0.28888740  0.81028234    -0.20600
C762        C  0.67460786  0.25497951  0.80862961    -0.07200
C763        C  0.67843231  0.21973953  0.84581144     0.13700
C764        C  0.64354166  0.21868057  0.88297717    -0.20700
C765        C  0.60637842  0.25331338  0.88501818    -0.07200
C766        C  0.60336441  0.28912126  0.84827116     0.13700
C767        C  0.56411272  0.32703503  0.84795637    -0.24000
H768        H  0.63407965  0.31556731  0.78154140     0.15000
H769        H  0.64627731  0.19155231  0.91138813     0.15000
C770        C  0.71930192  0.18363410  0.84808439    -0.24000
H771        H  0.56548336  0.34987581  0.81470637     0.05200
H772        H  0.56829824  0.35147566  0.87973700     0.08400
H773        H  0.52818943  0.30913823  0.84915119     0.08400
H774        H  0.74565634  0.18785948  0.81799355     0.08400
H775        H  0.70431449  0.14629423  0.84655740     0.08400
H776        H  0.73936294  0.18824213  0.88282999     0.05200
C777        C  0.86478664  0.31970997  0.75139279    -0.20600
C778        C  0.81969157  0.33397786  0.73286050    -0.07200
C779        C  0.81220879  0.38311923  0.72017378     0.13700
C780        C  0.84999140  0.41663189  0.72692773    -0.20700
C781        C  0.89468099  0.40244368  0.74664621    -0.07200
C782        C  0.90216393  0.35336919  0.75873046     0.13700
C783        C  0.94957364  0.33631047  0.77894613    -0.24000
H784        H  0.87040470  0.28208473  0.76111790     0.15000
H785        H  0.84442180  0.45425637  0.71698516     0.15000
C786        C  0.76518116  0.40145951  0.69931248    -0.24000
H787        H  0.95005550  0.29644826  0.78465246     0.05200
H788        H  0.95565822  0.35401442  0.81464234     0.08400
H789        H  0.97915153  0.34573707  0.75323682     0.08400
H790        H  0.75011779  0.42993873  0.72348647     0.08400
H791        H  0.73756851  0.37254190  0.69513350     0.08400
H792        H  0.77189535  0.41758068  0.66294327     0.05200
C793        C  0.71511938  0.14177917  0.58502801    -0.20600
C794        C  0.75124721  0.10622655  0.59019509    -0.07200
C795        C  0.78594844  0.11142786  0.62785173     0.13700
C796        C  0.78092840  0.14917426  0.66149399    -0.20700
C797        C  0.74592307  0.18540328  0.65554722    -0.07200
C798        C  0.71318712  0.18222379  0.61606368     0.13700
C799        C  0.67631924  0.22089878  0.60527417    -0.24000
H800        H  0.68905822  0.13881075  0.55559878     0.15000
H801        H  0.80474779  0.15055244  0.69275982     0.15000
C802        C  0.82825295  0.07752488  0.63336651    -0.24000
H803        H  0.68216691  0.23497094  0.56789348     0.05200
H804        H  0.67881833  0.25205048  0.63055673     0.08400
H805        H  0.63930194  0.20520453  0.60757789     0.08400
H806        H  0.85233356  0.08049409  0.60117989     0.08400
H807        H  0.81495688  0.04003281  0.63683012     0.08400
H808        H  0.85036276  0.08597163  0.66610576     0.05200
C809        C  0.71861239  0.37113615  0.80787441    -0.20600
C810        C  0.74830322  0.32999251  0.80937438    -0.07200
C811        C  0.78010180  0.32348028  0.84930254     0.13700
C812        C  0.78122060  0.35827300  0.88661386    -0.20700
C813        C  0.75025592  0.39855108  0.88586849    -0.07200
C814        C  0.71876524  0.40524865  0.84572512     0.13700
C815        C  0.68628395  0.44899841  0.84176276    -0.24000
H816        H  0.69489076  0.37642590  0.77690503     0.15000
H817        H  0.80549513  0.35313831  0.91723383     0.15000
C818        C  0.81276580  0.28005080  0.85414825    -0.24000
H819        H  0.66633410  0.44970283  0.80663457     0.05200
H820        H  0.70835833  0.48262010  0.84420584     0.08400
H821        H  0.65892020  0.44859902  0.87130429     0.08400
H822        H  0.85113972  0.29222493  0.85584636     0.08400
H823        H  0.80904067  0.25421519  0.82351730     0.08400
H824        H  0.80393503  0.26035248  0.88821939     0.05200
C825        C  0.58637899  0.15679530  0.72534132    -0.20600
C826        C  0.60076020  0.10922296  0.73568995    -0.07200
C827        C  0.65065573  0.09905981  0.74138793     0.13700
C828        C  0.68440050  0.13713672  0.73935946    -0.20700
C829        C  0.67002237  0.18492921  0.72944809    -0.07200
C830        C  0.62025278  0.19456612  0.72100152     0.13700
C831        C  0.60156937  0.24376618  0.70642652    -0.24000
H832        H  0.54823284  0.16472573  0.72055272     0.15000
H833        H  0.72248534  0.12938093  0.74549201     0.15000
C834        C  0.66962962  0.04852310  0.74879606    -0.24000
H835        H  0.58278403  0.24102302  0.67077659     0.05200
H836        H  0.63073725  0.27115193  0.70277457     0.08400
H837        H  0.57509255  0.25675217  0.73386868     0.08400
H838        H  0.64066280  0.02075914  0.74708999     0.08400
H839        H  0.68796860  0.04618067  0.78469425     0.08400
H840        H  0.69628183  0.03990231  0.71980378     0.05200
C841        C  0.36774001  0.22073163  0.09257017    -0.20600
C842        C  0.40746838  0.25200402  0.09888563    -0.07200
C843        C  0.40841657  0.28327370  0.13992322     0.13700
C844        C  0.37145537  0.27985075  0.17461669    -0.20700
C845        C  0.33180221  0.24888962  0.16800495    -0.07200
C846        C  0.32897725  0.22027487  0.12551479     0.13700
C847        C  0.28506342  0.19041695  0.11281179    -0.24000
H848        H  0.36596273  0.19778244  0.06059492     0.15000
H849        H  0.37336910  0.30196226  0.20713410     0.13800
C850        C  0.44727254  0.32048753  0.14946682    -0.24000
H851        H  0.27017400  0.20293063  0.07742577     0.05200
H852        H  0.25575393  0.19353544  0.14013215     0.08400
H853        H  0.29559853  0.15180752  0.10927909     0.08400
H854        H  0.47544988  0.32195233  0.12121208     0.08400
H855        H  0.46515770  0.31256754  0.18479077     0.08400
H856        H  0.43048015  0.35698474  0.15160501     0.05200
C857        C  0.15131795  0.32419820  0.21151030    -0.20600
C858        C  0.18731387  0.32545300  0.24767872    -0.07200
C859        C  0.18534206  0.36201151  0.28373968     0.13700
C860        C  0.14694037  0.39532469  0.28332823    -0.20700
C861        C  0.11119819  0.39435569  0.24693328    -0.07200
C862        C  0.11364890  0.35839459  0.21028580     0.13700
C863        C  0.07577591  0.35455510  0.17091620    -0.24000
H864        H  0.15239821  0.29568731  0.18440869     0.15000
H865        H  0.14543296  0.42298865  0.31131957     0.15000
C866        C  0.22316715  0.36749400  0.32285759    -0.24000
H867        H  0.08209514  0.32278644  0.14692300     0.05200
H868        H  0.07656170  0.38745143  0.14773135     0.08400
H869        H  0.03937329  0.35046608  0.18756904     0.08400
H870        H  0.23935666  0.40430043  0.32087725     0.08400
H871        H  0.25297668  0.34097066  0.31939025     0.08400
H872        H  0.20597884  0.36290082  0.35906810     0.05200
C873        C  0.30056636  0.16708364  0.34708838    -0.20600
C874        C  0.25969083  0.17097915  0.31674090    -0.07200
C875        C  0.22102808  0.13783929  0.32293628     0.13700
C876        C  0.22262228  0.10467384  0.36149182    -0.20700
C877        C  0.26288316  0.10158320  0.39278393    -0.07200
C878        C  0.30333879  0.13211385  0.38409408     0.13700
C879        C  0.34929584  0.12890943  0.41363921    -0.24000
H880        H  0.33029567  0.19233654  0.34231006     0.15000
H881        H  0.19213418  0.08032484  0.36659056     0.15000
C882        C  0.17798197  0.13544845  0.28919722    -0.24000
H883        H  0.37643737  0.15645234  0.40224257     0.05200
H884        H  0.36605729  0.09270516  0.40868703     0.08400
H885        H  0.34134274  0.13491992  0.45261741     0.08400
H886        H  0.18015257  0.16181479  0.25891671     0.08400
H887        H  0.14423692  0.14239342  0.31002619     0.08400
H888        H  0.17561574  0.09867913  0.27294583     0.05200
C889        C  0.23862578  0.31782359  0.12776407    -0.20600
C890        C  0.26128137  0.32584328  0.17275317    -0.07200
C891        C  0.28450897  0.37076541  0.18158839     0.13700
C892        C  0.28366457  0.40673748  0.14549399    -0.20700
C893        C  0.25932963  0.39943680  0.10127966    -0.07200
C894        C  0.23699963  0.35417236  0.09205613     0.13700
C895        C  0.21273629  0.34354865  0.04406102    -0.24000
H896        H  0.22156582  0.28306975  0.12088542     0.15000
H897        H  0.30148163  0.44103824  0.15235007     0.15000
C898        C  0.31069699  0.38194468  0.22838172    -0.24000
H899        H  0.19916730  0.30566048  0.04223410     0.05200
H900        H  0.23909845  0.34880167  0.01400754     0.08400
H901        H  0.18130907  0.36802330  0.03868649     0.08400
H902        H  0.34907433  0.39118160  0.22037414     0.08400
H903        H  0.31062336  0.35112645  0.25417902     0.08400
H904        H  0.29332772  0.41348226  0.24633894     0.05200
C905        C  0.37791823  0.18263742  0.25488980    -0.20600
C906        C  0.33106310  0.17109818  0.23865916    -0.07200
C907        C  0.32102759  0.12316341  0.22310661     0.13700
C908        C  0.35817094  0.08834617  0.22402714    -0.20700
C909        C  0.40446908  0.09957048  0.24193253    -0.07200
C910        C  0.41430502  0.14727146  0.25769847     0.13700
C911        C  0.46300207  0.16086871  0.27792420    -0.24000
H912        H  0.38544675  0.21922227  0.26718515     0.15000
H913        H  0.35049977  0.05179102  0.21190772     0.15000
C914        C  0.27166046  0.10716672  0.20605065    -0.24000
H915        H  0.46523422  0.20002237  0.28707376     0.05200
H916        H  0.49167988  0.15264925  0.25082451     0.08400
H917        H  0.46921683  0.13996345  0.31181238     0.08400
H918        H  0.24509981  0.13714832  0.20517898     0.08400
H919        H  0.25769601  0.07857155  0.23076491     0.08400
H920        H  0.27431019  0.09183652  0.16882986     0.05200
C921        C  0.91289169  0.20553721  0.35198522    -0.20600
C922        C  0.90687582  0.24019951  0.38888313    -0.07200
C923        C  0.86556104  0.27053126  0.38817141     0.13700
C924        C  0.83246850  0.26658310  0.34971649    -0.20700
C925        C  0.83919185  0.23298516  0.31214922    -0.07200
C926        C  0.87978908  0.20179225  0.31335620     0.13700
C927        C  0.88975390  0.16480008  0.27433455    -0.24000
H928        H  0.94424548  0.18189901  0.35265477     0.15000
H929        H  0.80098073  0.28997419  0.34886961     0.15000
C930        C  0.85493573  0.30578248  0.42867053    -0.24000
H931        H  0.92572115  0.17210543  0.25776146     0.05200
H932        H  0.86231867  0.16508165  0.24486130     0.08400
H933        H  0.89023548  0.12801801  0.29070630     0.08400
H934        H  0.88304748  0.33454579  0.42989678     0.08400
H935        H  0.85392999  0.28615459  0.46389553     0.08400
H936        H  0.81932827  0.32388661  0.42363444     0.05200
C937        C  0.15470823  0.28073179  0.58713671    -0.20600
C938        C  0.10860739  0.26306248  0.59920580    -0.07200
C939        C  0.09873935  0.24948901  0.64763883     0.13700
C940        C  0.13522617  0.25331290  0.68285568    -0.20700
C941        C  0.18183791  0.26940333  0.67071414    -0.07200
C942        C  0.19177737  0.28343955  0.62212503     0.13700
C943        C  0.24086932  0.30085371  0.60564893    -0.24000
H944        H  0.16222348  0.29124419  0.54987717     0.15000
H945        H  0.12782479  0.24206324  0.71986313     0.15000
C946        C  0.04991537  0.23043827  0.66219737    -0.24000
H947        H  0.23759526  0.33792224  0.59030329     0.05200
H948        H  0.25478110  0.27645341  0.57675392     0.08400
H949        H  0.26784758  0.30194974  0.63555089     0.08400
H950        H  0.04360085  0.19556460  0.64322310     0.08400
H951        H  0.02135303  0.25700137  0.65223998     0.08400
H952        H  0.04756905  0.22364464  0.70195739     0.05200
C953        C  0.86117086  0.28458189  0.58323810    -0.20600
C954        C  0.90006530  0.25299543  0.59267607    -0.07200
C955        C  0.89878630  0.22413967  0.63537318     0.13700
C956        C  0.86054436  0.23001487  0.66825459    -0.20700
C957        C  0.82092558  0.25987304  0.65776986    -0.07200
C958        C  0.82087731  0.28712357  0.61434355     0.13700
C959        C  0.77892517  0.31867612  0.59949333    -0.24000
H960        H  0.86151207  0.30650387  0.55052895     0.15000
H961        H  0.86112200  0.21009596  0.70223079     0.15000
C962        C  0.93637174  0.18687952  0.64851485    -0.24000
H963        H  0.79141389  0.35677344  0.59594480     0.05200
H964        H  0.74861387  0.31757859  0.62586896     0.08400
H965        H  0.76467945  0.30623457  0.56380020     0.08400
H966        H  0.95310004  0.19647747  0.68399954     0.08400
H967        H  0.96542119  0.18318494  0.62141149     0.08400
H968        H  0.91865841  0.15088861  0.65209643     0.05200
C969        C  0.16116078  0.25391722  0.40663633    -0.20600
C970        C  0.11257045  0.25009579  0.39237768    -0.07200
C971        C  0.10078663  0.24672656  0.34262310     0.13700
C972        C  0.13819072  0.24562755  0.30814501    -0.20700
C973        C  0.18717347  0.24962696  0.32199516    -0.07200
C974        C  0.19863141  0.25486463  0.37210821     0.13700
C975        C  0.24935616  0.26350850  0.39062934    -0.24000
H976        H  0.16985423  0.25740918  0.44497872     0.15000
H977        H  0.12919601  0.24154770  0.26998342     0.15000
C978        C  0.04875497  0.24437671  0.32597133    -0.24000
H979        H  0.25048132  0.29800866  0.41139562     0.05200
H980        H  0.27644448  0.26637499  0.36107995     0.08400
H981        H  0.26000900  0.23355491  0.41538340     0.08400
H982        H  0.02918900  0.27740339  0.33803812     0.08400
H983        H  0.03091242  0.21194218  0.34178893     0.08400
H984        H  0.04587615  0.24208716  0.28571753     0.05200
loop_ 
_geom_bond_atom_site_label_1 
_geom_bond_atom_site_label_2 
_geom_bond_distance 
_geom_bond_site_symmetry_2 
_ccdc_geom_bond_type 
O1            V9   1.900       .  S
O1           C11   1.263       .  A
O2            V9   1.903   1_655  S
O2           C12   1.266       .  A
O3            V9   1.901       .  S
O3           C13   1.263       .  A
O4            V9   1.895   1_655  S
O4           C14   1.263       .  A
O5           V10   1.902   1_655  S
O5           C14   1.265       .  A
O6           V10   1.903       .  S
O6           C13   1.265       .  A
O7           V10   1.902   1_655  S
O7           C12   1.264       .  A
O8           V10   1.902       .  S
O8           C11   1.264       .  A
V9           V10   2.086       .  T
C11         C970   1.470       .  S
C12         C954   1.483       .  S
C13         C938   1.474       .  S
C14         C922   1.478       .  S
C15         C858   1.497       .  S
C15          C16   1.423       .  A
C15          C20   1.415       .  A
C16         C973   1.499       .  S
C16          C17   1.426       .  A
C17         C874   1.497       .  S
C17          C18   1.420       .  A
C18         C906   1.496       .  S
C18          C19   1.414       .  A
C19         C845   1.487       .  S
C19          C20   1.412       .  A
C20         C890   1.492       .  S
C21         C957   1.489       .  S
C21          C22   1.415       .  A
C21          C26   1.419       .  A
C22         C778   1.490       .  S
C22          C23   1.412       .  A
C23         C810   1.494       .  S
C23          C24   1.415       .  A
C24         C762   1.487       .  S
C24          C25   1.418       .  A
C25         C829   1.497       .  S
C25          C26   1.418       .  A
C26         C797   1.493       .  S
O27          V35   1.903       .  S
O27          C37   1.265       .  A
O28          V35   1.907   1_545  S
O28          C38   1.266       .  A
O29          V35   1.899       .  S
O29          C39   1.264       .  A
O30          V35   1.898   1_545  S
O30          C40   1.263       .  A
O31          V36   1.906   1_545  S
O31          C40   1.267       .  A
O32          V36   1.905       .  S
O32          C39   1.266       .  A
O33          V36   1.906   1_545  S
O33          C38   1.265       .  A
O34          V36   1.903       .  S
O34          C37   1.264       .  A
V35          V36   2.087       .  T
C37         C749   1.476       .  S
C38         C909   1.481       .  S
C39         C717   1.482       .  S
C40         C733   1.487       .  S
C41         C746   1.491       .  S
C41          C42   1.414       .  A
C41          C46   1.416       .  A
C42         C634   1.491       .  S
C42          C43   1.418       .  A
C43         C682   1.487       .  S
C43          C44   1.416       .  A
C44         C650   1.496       .  S
C44          C45   1.412       .  A
C45         C698   1.488       .  S
C45          C46   1.416       .  A
C46         C666   1.492       .  S
O47          V55   1.898       .  S
O47          C57   1.264       .  A
O48          V55   1.901   1_455  S
O48          C58   1.264       .  A
O49          V55   1.903       .  S
O49          C59   1.265       .  A
O50          V55   1.903   1_455  S
O50          C60   1.265       .  A
O51          V56   1.902   1_455  S
O51          C60   1.264       .  A
O52          V56   1.903       .  S
O52          C59   1.264       .  A
O53          V56   1.902   1_455  S
O53          C58   1.266       .  A
O54          V56   1.901       .  S
O54          C57   1.264       .  A
V55          V56   2.087       .  T
C57         C602   1.479       .  S
C58         C586   1.486       .  S
C59         C701   1.476       .  S
C60         C618   1.480       .  S
C61         C522   1.493       .  S
C61          C62   1.415       .  A
C61          C66   1.416       .  A
C62         C621   1.492       .  S
C62          C63   1.416       .  A
C63         C538   1.488       .  S
C63          C64   1.419       .  A
C64         C570   1.501       .  S
C64          C65   1.420       .  A
C65         C506   1.490       .  S
C65          C66   1.420       .  A
C66         C554   1.496       .  S
O67          V75   1.905       .  S
O67          C77   1.265       .  A
O68          V75   1.904   1_565  S
O68          C78   1.267       .  A
O69          V75   1.906   1_565  S
O69          C79   1.265       .  A
O70          V75   1.905       .  S
O70          C80   1.264       .  A
O71          V76   1.911       .  S
O71          C80   1.266       .  A
O72          V76   1.908   1_565  S
O72          C79   1.265       .  A
O73          V76   1.904   1_565  S
O73          C78   1.264       .  A
O74          V76   1.898       .  S
O74          C77   1.264       .  A
V75          V76   2.087       .  T
C77         C474   1.478       .  S
C78         C493   1.486       .  S
C79         C573   1.481       .  S
C80         C826   1.479       .  S
O81          V89   1.888       .  S
O81          C91   1.261       .  A
O82          V89   1.892   1_556  S
O82          C92   1.261       .  A
O83          V89   1.910   1_556  S
O83          C93   1.266       .  A
O84          V89   1.909       .  S
O84          C94   1.266       .  A
O85          V90   1.898       .  S
O85          C94   1.263       .  A
O86          V90   1.902   1_556  S
O86          C93   1.263       .  A
O87          V90   1.905   1_556  S
O87          C92   1.267       .  A
O88          V90   1.906       .  S
O88          C91   1.266       .  A
V89          V90   2.087       .  T
C91         C461   1.475       .  S
C92         C442   1.480       .  S
C93         C557   1.479       .  S
C94         C893   1.479       .  S
O95         V103   1.909       .  S
O95         C105   1.266       .  A
O96         V103   1.908   1_554  S
O96         C106   1.266       .  A
O97         V103   1.891   1_554  S
O97         C107   1.262       .  A
O98         V103   1.892       .  S
O98         C108   1.261       .  A
O99         V104   1.907       .  S
O99         C108   1.268       .  A
O100        V104   1.907   1_554  S
O100        C107   1.266       .  A
O101        V104   1.896   1_554  S
O101        C106   1.262       .  A
O102        V104   1.895       .  S
O102        C105   1.262       .  A
V103        V104   2.087       .  T
C105        C813   1.480       .  S
C106        C685   1.473       .  S
C107        C410   1.478       .  S
C108        C426   1.485       .  S
C109        C490   1.494       .  S
C109        C110   1.416       .  A
C109        C114   1.414       .  A
C110        C394   1.490       .  S
C110        C111   1.418       .  A
C111        C605   1.488       .  S
C111        C112   1.413       .  A
C112        C378   1.498       .  S
C112        C113   1.417       .  A
C113        C429   1.490       .  S
C113        C114   1.418       .  A
C114        C362   1.488       .  S
O115        V123   1.905       .  S
O115        C125   1.265       .  A
O116        V123   1.906   1_545  S
O116        C126   1.265       .  A
O117        V123   1.901   1_545  S
O117        C127   1.264       .  A
O118        V123   1.900       .  S
O118        C128   1.264       .  A
O119        V124   1.902       .  S
O119        C128   1.266       .  A
O120        V124   1.904   1_545  S
O120        C127   1.266       .  A
O121        V124   1.903   1_545  S
O121        C126   1.264       .  A
O122        V124   1.904       .  S
O122        C125   1.264       .  A
V123        V124   2.086       .  T
C125        C397   1.477       .  S
C126        C346   1.479       .  S
C127        C794   1.486       .  S
C128        C669   1.484       .  S
C129        C330   1.488       .  S
C129        C130   1.413       .  A
C129        C134   1.411       .  A
C130        C925   1.487       .  S
C130        C131   1.413       .  A
C131        C349   1.491       .  S
C131        C132   1.417       .  A
C132        C730   1.493       .  S
C132        C133   1.418       .  A
C133        C317   1.491       .  S
C133        C134   1.416       .  A
C134        C413   1.489       .  S
O135        V143   1.903       .  S
O135        C145   1.265       .  A
O136        V143   1.904   1_655  S
O136        C146   1.265       .  A
O137        V143   1.903   1_655  S
O137        C147   1.265       .  A
O138        V143   1.900       .  S
O138        C148   1.263       .  A
O139        V144   1.905       .  S
O139        C148   1.265       .  A
O140        V144   1.902   1_655  S
O140        C147   1.264       .  A
O141        V144   1.905   1_655  S
O141        C146   1.266       .  A
O142        V144   1.904       .  S
O142        C145   1.265       .  A
V143        V144   2.085       .  T
C145        C861   1.484       .  S
C146        C653   1.489       .  S
C147        C333   1.477       .  S
C148        C298   1.474       .  S
C149        C714   1.493       .  S
C149        C150   1.417       .  A
C149        C154   1.412       .  A
C150        C282   1.490       .  S
C150        C151   1.419       .  A
C151        C589   1.492       .  S
C151        C152   1.418       .  A
C152        C301   1.495       .  S
C152        C153   1.414       .  A
C153        C458   1.486       .  S
C153        C154   1.412       .  A
C154        C266   1.489       .  S
O155        V163   1.906       .  S
O155        C165   1.265       .  A
O156        V163   1.903   1_565  S
O156        C166   1.265       .  A
O157        V163   1.900   1_565  S
O157        C167   1.264       .  A
O158        V163   1.902       .  S
O158        C168   1.265       .  A
O159        V164   1.905       .  S
O159        C168   1.265       .  A
O160        V164   1.903   1_565  S
O160        C167   1.264       .  A
O161        V164   1.896   1_565  S
O161        C166   1.263       .  A
O162        V164   1.895       .  S
O162        C165   1.265       .  A
V163        V164   2.086       .  T
C165        C877   1.488       .  S
C166        C541   1.477       .  S
C167        C285   1.475       .  S
C168        C250   1.483       .  S
C169        C941   1.489       .  S
C169        C170   1.418       .  A
C169        C174   1.417       .  A
C170        C237   1.494       .  S
C170        C171   1.417       .  A
C171        C445   1.486       .  S
C171        C172   1.413       .  A
C172        C218   1.490       .  S
C172        C173   1.412       .  A
C173        C477   1.487       .  S
C173        C174   1.414       .  A
C174        C253   1.493       .  S
O175        V183   1.908   1_455  S
O175        C185   1.267       .  A
O176        V183   1.913       .  S
O176        C186   1.267       .  A
O177        V183   1.905   1_455  S
O177        C187   1.265       .  A
O178        V183   1.904       .  S
O178        C188   1.264       .  A
O179        V184   1.905       .  S
O179        C188   1.265       .  A
O180        V184   1.907   1_455  S
O180        C187   1.266       .  A
O181        V184   1.895       .  S
O181        C186   1.262       .  A
O182        V184   1.894   1_455  S
O182        C185   1.262       .  A
V183        V184   2.087       .  T
C185        C525   1.482       .  S
C186        C781   1.477       .  S
C187        C234   1.486       .  S
C188        C381   1.477       .  S
O189        V197   1.890       .  S
O189        C199   1.262       .  A
O190        V197   1.893   1_554  S
O190        C200   1.261       .  A
O191        V197   1.909   1_554  S
O191        C201   1.266       .  A
O192        V197   1.907       .  S
O192        C202   1.266       .  A
O193        V198   1.900       .  S
O193        C202   1.263       .  A
O194        V198   1.899   1_554  S
O194        C201   1.263       .  A
O195        V198   1.906   1_554  S
O195        C200   1.267       .  A
O196        V198   1.908       .  S
O196        C199   1.266       .  A
V197        V198   2.086       .  T
C199        C765   1.478       .  S
C200        C842   1.479       .  S
C201        C314   1.476       .  S
C202        C221   1.478       .  S
O203        V211   1.901       .  S
O203        C213   1.264       .  A
O204        V211   1.902   1_556  S
O204        C214   1.264       .  A
O205        V211   1.899   1_556  S
O205        C215   1.265       .  A
O206        V211   1.901       .  S
O206        C216   1.265       .  A
O207        V212   1.903       .  S
O207        C216   1.265       .  A
O208        V212   1.903   1_556  S
O208        C215   1.264       .  A
O209        V212   1.901   1_556  S
O209        C214   1.264       .  A
O210        V212   1.899       .  S
O210        C213   1.263       .  A
V211        V212   2.086       .  T
C213        C269   1.472       .  S
C214        C365   1.474       .  S
C215        C509   1.483       .  S
C216        C637   1.478       .  S
C217        C218   1.402       .  A
C217        C222   1.405       .  A
C217        H224   1.083       .  S
C218        C219   1.414       .  A
C219        C220   1.403       .  A
C219        C226   1.507       .  S
C220        C221   1.402       .  A
C220        H225   1.080       .  S
C221        C222   1.413       .  A
C222        C223   1.506       .  S
C223        H227   1.111       .  S
C223        H228   1.110       .  S
C223        H229   1.110       .  S
C226        H230   1.110       .  S
C226        H231   1.108       .  S
C226        H232   1.110       .  S
C233        C234   1.406       .  A
C233        C238   1.408       .  A
C233        H240   1.083       .  S
C234        C235   1.418       .  A
C235        C236   1.400       .  A
C235        C242   1.503       .  S
C236        C237   1.398       .  A
C236        H241   1.082       .  S
C237        C238   1.411       .  A
C238        C239   1.503       .  S
C239        H243   1.111       .  S
C239        H244   1.103       .  S
C239        H245   1.108       .  S
C242        H246   1.110       .  S
C242        H247   1.101       .  S
C242        H248   1.110       .  S
C249        C250   1.405       .  A
C249        C254   1.406       .  A
C249        H256   1.084       .  S
C250        C251   1.414       .  A
C251        C252   1.401       .  A
C251        C258   1.505       .  S
C252        C253   1.400       .  A
C252        H257   1.082       .  S
C253        C254   1.415       .  A
C254        C255   1.506       .  S
C255        H259   1.110       .  S
C255        H260   1.110       .  S
C255        H261   1.108       .  S
C258        H262   1.109       .  S
C258        H263   1.109       .  S
C258        H264   1.111       .  S
C265        C266   1.403       .  A
C265        C270   1.404       .  A
C265        H272   1.084       .  S
C266        C267   1.415       .  A
C267        C268   1.401       .  A
C267        C274   1.506       .  S
C268        C269   1.401       .  A
C268        H273   1.085       .  S
C269        C270   1.412       .  A
C270        C271   1.507       .  S
C271        H275   1.111       .  S
C271        H276   1.111       .  S
C271        H277   1.109       .  S
C274        H278   1.111       .  S
C274        H279   1.107       .  S
C274        H280   1.110       .  S
C281        C282   1.403       .  A
C281        C286   1.404       .  A
C281        H288   1.084       .  S
C282        C283   1.416       .  A
C283        C284   1.403       .  A
C283        C290   1.507       .  S
C284        C285   1.401       .  A
C284        H289   1.085       .  S
C285        C286   1.412       .  A
C286        C287   1.506       .  S
C287        H291   1.111       .  S
C287        H292   1.110       .  S
C287        H293   1.110       .  S
C290        H294   1.110       .  S
C290        H295   1.108       .  S
C290        H296   1.110       .  S
C297        C298   1.400       .  A
C297        C302   1.403       .  A
C297        H304   1.085       .  S
C298        C299   1.410       .  A
C299        C300   1.405       .  A
C299        C306   1.506       .  S
C300        C301   1.405       .  A
C300        H305   1.084       .  S
C301        C302   1.419       .  A
C302        C303   1.507       .  S
C303        H307   1.110       .  S
C303        H308   1.107       .  S
C303        H309   1.110       .  S
C306        H310   1.111       .  S
C306        H311   1.110       .  S
C306        H312   1.111       .  S
C313        C314   1.401       .  A
C313        C318   1.404       .  A
C313        H320   1.085       .  S
C314        C315   1.410       .  A
C315        C316   1.401       .  A
C315        C322   1.499       .  S
C316        C317   1.401       .  A
C316        H321   1.084       .  S
C317        C318   1.418       .  A
C318        C319   1.507       .  S
C319        H323   1.110       .  S
C319        H324   1.108       .  S
C319        H325   1.110       .  S
C322        H326   1.111       .  S
C322        H327   1.107       .  S
C322        H328   1.111       .  S
C329        C330   1.401       .  A
C329        C334   1.402       .  A
C329        H336   1.084       .  S
C330        C331   1.413       .  A
C331        C332   1.403       .  A
C331        C338   1.506       .  S
C332        C333   1.402       .  A
C332        H337   1.084       .  S
C333        C334   1.413       .  A
C334        C335   1.502       .  S
C335        H339   1.109       .  S
C335        H340   1.111       .  S
C335        H341   1.110       .  S
C338        H342   1.110       .  S
C338        H343   1.108       .  S
C338        H344   1.110       .  S
C345        C346   1.401       .  A
C345        C350   1.404       .  A
C345        H352   1.085       .  S
C346        C347   1.412       .  A
C347        C348   1.403       .  A
C347        C354   1.500       .  S
C348        C349   1.400       .  A
C348        H353   1.084       .  S
C349        C350   1.418       .  A
C350        C351   1.507       .  S
C351        H355   1.110       .  S
C351        H356   1.110       .  S
C351        H357   1.108       .  S
C354        H358   1.111       .  S
C354        H359   1.109       .  S
C354        H360   1.111       .  S
C361        C362   1.400       .  A
C361        C366   1.399       .  A
C361        H368   1.082       .  S
C362        C363   1.415       .  A
C363        C364   1.405       .  A
C363        C370   1.506       .  S
C364        C365   1.403       .  A
C364        H369   1.084       .  S
C365        C366   1.411       .  A
C366        C367   1.503       .  S
C367        H371   1.111       .  S
C367        H372   1.111       .  S
C367        H373   1.108       .  S
C370        H374   1.110       .  S
C370        H375   1.108       .  S
C370        H376   1.110       .  S
C377        C378   1.405       .  A
C377        C382   1.406       .  A
C377        H384   1.084       .  S
C378        C379   1.416       .  A
C379        C380   1.405       .  A
C379        C386   1.505       .  S
C380        C381   1.401       .  A
C380        H385   1.085       .  S
C381        C382   1.412       .  A
C382        C383   1.506       .  S
C383        H387   1.111       .  S
C383        H388   1.111       .  S
C383        H389   1.110       .  S
C386        H390   1.110       .  S
C386        H391   1.107       .  S
C386        H392   1.110       .  S
C393        C394   1.402       .  A
C393        C398   1.401       .  A
C393        H400   1.084       .  S
C394        C395   1.416       .  A
C395        C396   1.405       .  A
C395        C402   1.507       .  S
C396        C397   1.402       .  A
C396        H401   1.085       .  S
C397        C398   1.410       .  A
C398        C399   1.500       .  S
C399        H403   1.111       .  S
C399        H404   1.111       .  S
C399        H405   1.108       .  S
C402        H406   1.110       .  S
C402        H407   1.107       .  S
C402        H408   1.110       .  S
C409        C410   1.403       .  A
C409        C414   1.404       .  A
C409        H416   1.085       .  S
C410        C411   1.415       .  A
C411        C412   1.401       .  A
C411        C418   1.508       .  S
C412        C413   1.399       .  A
C412        H417   1.082       .  S
C413        C414   1.415       .  A
C414        C415   1.507       .  S
C415        H419   1.111       .  S
C415        H420   1.108       .  S
C415        H421   1.110       .  S
C418        H422   1.109       .  S
C418        H423   1.110       .  S
C418        H424   1.111       .  S
C425        C426   1.404       .  A
C425        C430   1.402       .  A
C425        H432   1.085       .  S
C426        C427   1.419       .  A
C427        C428   1.400       .  A
C427        C434   1.506       .  S
C428        C429   1.400       .  A
C428        H433   1.084       .  S
C429        C430   1.416       .  A
C430        C431   1.506       .  S
C431        H435   1.110       .  S
C431        H436   1.107       .  S
C431        H437   1.110       .  S
C434        H438   1.110       .  S
C434        H439   1.102       .  S
C434        H440   1.111       .  S
C441        C442   1.404       .  A
C441        C446   1.401       .  A
C441        H448   1.084       .  S
C442        C443   1.417       .  A
C443        C444   1.400       .  A
C443        C450   1.504       .  S
C444        C445   1.399       .  A
C444        H449   1.082       .  S
C445        C446   1.414       .  A
C446        C447   1.506       .  S
C447        H451   1.110       .  S
C447        H452   1.109       .  S
C447        H453   1.109       .  S
C450        H454   1.110       .  S
C450        H455   1.101       .  S
C450        H456   1.111       .  S
C457        C458   1.398       .  A
C457        C462   1.397       .  A
C457        H464   1.081       .  S
C458        C459   1.414       .  A
C459        C460   1.404       .  A
C459        C466   1.507       .  S
C460        C461   1.403       .  A
C460        H465   1.084       .  S
C461        C462   1.415       .  A
C462        C463   1.507       .  S
C463        H467   1.111       .  S
C463        H468   1.109       .  S
C463        H469   1.108       .  S
C466        H470   1.108       .  S
C466        H471   1.110       .  S
C466        H472   1.110       .  S
C473        C474   1.404       .  A
C473        C478   1.403       .  A
C473        H480   1.085       .  S
C474        C475   1.413       .  A
C475        C476   1.402       .  A
C475        C482   1.504       .  S
C476        C477   1.401       .  A
C476        H481   1.083       .  S
C477        C478   1.413       .  A
C478        C479   1.507       .  S
C479        H483   1.110       .  S
C479        H484   1.110       .  S
C479        H485   1.108       .  S
C482        H486   1.110       .  S
C482        H487   1.105       .  S
C482        H488   1.111       .  S
C489        C490   1.402       .  A
C489        C494   1.406       .  A
C489        H496   1.085       .  S
C490        C491   1.413       .  A
C491        C492   1.403       .  A
C491        C498   1.505       .  S
C492        C493   1.405       .  A
C492        H497   1.085       .  S
C493        C494   1.422       .  A
C494        C495   1.508       .  S
C495        H499   1.110       .  S
C495        H500   1.103       .  S
C495        H501   1.111       .  S
C498        H502   1.111       .  S
C498        H503   1.107       .  S
C498        H504   1.109       .  S
C505        C506   1.401       .  A
C505        C510   1.401       .  A
C505        H512   1.085       .  S
C506        C507   1.412       .  A
C507        C508   1.401       .  A
C507        C514   1.504       .  S
C508        C509   1.406       .  A
C508        H513   1.085       .  S
C509        C510   1.420       .  A
C510        C511   1.506       .  S
C511        H515   1.111       .  S
C511        H516   1.100       .  S
C511        H517   1.111       .  S
C514        H518   1.110       .  S
C514        H519   1.105       .  S
C514        H520   1.110       .  S
C521        C522   1.402       .  A
C521        C526   1.403       .  A
C521        H528   1.084       .  S
C522        C523   1.414       .  A
C523        C524   1.404       .  A
C523        C530   1.504       .  S
C524        C525   1.403       .  A
C524        H529   1.084       .  S
C525        C526   1.416       .  A
C526        C527   1.507       .  S
C527        H531   1.111       .  S
C527        H532   1.109       .  S
C527        H533   1.109       .  S
C530        H534   1.109       .  S
C530        H535   1.110       .  S
C530        H536   1.107       .  S
C537        C538   1.401       .  A
C537        C542   1.402       .  A
C537        H544   1.082       .  S
C538        C539   1.414       .  A
C539        C540   1.403       .  A
C539        C546   1.507       .  S
C540        C541   1.403       .  A
C540        H545   1.084       .  S
C541        C542   1.414       .  A
C542        C543   1.507       .  S
C543        H547   1.111       .  S
C543        H548   1.109       .  S
C543        H549   1.110       .  S
C546        H550   1.108       .  S
C546        H551   1.110       .  S
C546        H552   1.111       .  S
C553        C554   1.403       .  A
C553        C558   1.403       .  A
C553        H560   1.084       .  S
C554        C555   1.417       .  A
C555        C556   1.406       .  A
C555        C562   1.504       .  S
C556        C557   1.402       .  A
C556        H561   1.085       .  S
C557        C558   1.410       .  A
C558        C559   1.500       .  S
C559        H563   1.111       .  S
C559        H564   1.111       .  S
C559        H565   1.108       .  S
C562        H566   1.109       .  S
C562        H567   1.106       .  S
C562        H568   1.110       .  S
C569        C570   1.406       .  A
C569        C574   1.408       .  A
C569        H576   1.084       .  S
C570        C571   1.419       .  A
C571        C572   1.406       .  A
C571        C578   1.507       .  S
C572        C573   1.402       .  A
C572        H577   1.085       .  S
C573        C574   1.411       .  A
C574        C575   1.506       .  S
C575        H579   1.111       .  S
C575        H580   1.111       .  S
C575        H581   1.110       .  S
C578        H582   1.107       .  S
C578        H583   1.110       .  S
C578        H584   1.110       .  S
C585        C586   1.405       .  A
C585        C590   1.402       .  A
C585        H592   1.085       .  S
C586        C587   1.418       .  A
C587        C588   1.404       .  A
C587        C594   1.505       .  S
C588        C589   1.401       .  A
C588        H593   1.083       .  S
C589        C590   1.413       .  A
C590        C591   1.503       .  S
C591        H595   1.110       .  S
C591        H596   1.107       .  S
C591        H597   1.109       .  S
C594        H598   1.110       .  S
C594        H599   1.104       .  S
C594        H600   1.111       .  S
C601        C602   1.404       .  A
C601        C606   1.402       .  A
C601        H608   1.085       .  S
C602        C603   1.415       .  A
C603        C604   1.402       .  A
C603        C610   1.506       .  S
C604        C605   1.402       .  A
C604        H609   1.083       .  S
C605        C606   1.414       .  A
C606        C607   1.507       .  S
C607        H611   1.110       .  S
C607        H612   1.108       .  S
C607        H613   1.110       .  S
C610        H614   1.109       .  S
C610        H615   1.107       .  S
C610        H616   1.111       .  S
C617        C618   1.403       .  A
C617        C622   1.404       .  A
C617        H624   1.085       .  S
C618        C619   1.414       .  A
C619        C620   1.405       .  A
C619        C626   1.507       .  S
C620        C621   1.403       .  A
C620        H625   1.084       .  S
C621        C622   1.414       .  A
C622        C623   1.506       .  S
C623        H627   1.110       .  S
C623        H628   1.108       .  S
C623        H629   1.110       .  S
C626        H630   1.111       .  S
C626        H631   1.110       .  S
C626        H632   1.111       .  S
C633        C634   1.402       .  A
C633        C638   1.403       .  A
C633        H640   1.084       .  S
C634        C635   1.413       .  A
C635        C636   1.404       .  A
C635        C642   1.506       .  S
C636        C637   1.404       .  A
C636        H641   1.085       .  S
C637        C638   1.416       .  A
C638        C639   1.508       .  S
C639        H643   1.110       .  S
C639        H644   1.106       .  S
C639        H645   1.111       .  S
C642        H646   1.110       .  S
C642        H647   1.108       .  S
C642        H648   1.110       .  S
C649        C650   1.400       .  A
C649        C654   1.403       .  A
C649        H656   1.083       .  S
C650        C651   1.414       .  A
C651        C652   1.405       .  A
C651        C658   1.507       .  S
C652        C653   1.407       .  A
C652        H657   1.085       .  S
C653        C654   1.423       .  A
C654        C655   1.508       .  S
C655        H659   1.110       .  S
C655        H660   1.111       .  S
C655        H661   1.100       .  S
C658        H662   1.110       .  S
C658        H663   1.108       .  S
C658        H664   1.110       .  S
C665        C666   1.401       .  A
C665        C670   1.400       .  A
C665        H672   1.083       .  S
C666        C667   1.415       .  A
C667        C668   1.404       .  A
C667        C674   1.506       .  S
C668        C669   1.405       .  A
C668        H673   1.084       .  S
C669        C670   1.416       .  A
C670        C671   1.505       .  S
C671        H675   1.111       .  S
C671        H676   1.110       .  S
C671        H677   1.101       .  S
C674        H678   1.110       .  S
C674        H679   1.108       .  S
C674        H680   1.110       .  S
C681        C682   1.401       .  A
C681        C686   1.399       .  A
C681        H688   1.084       .  S
C682        C683   1.416       .  A
C683        C684   1.404       .  A
C683        C690   1.506       .  S
C684        C685   1.402       .  A
C684        H689   1.085       .  S
C685        C686   1.409       .  A
C686        C687   1.501       .  S
C687        H691   1.111       .  S
C687        H692   1.111       .  S
C687        H693   1.108       .  S
C690        H694   1.110       .  S
C690        H695   1.108       .  S
C690        H696   1.110       .  S
C697        C698   1.401       .  A
C697        C702   1.401       .  A
C697        H704   1.084       .  S
C698        C699   1.413       .  A
C699        C700   1.403       .  A
C699        C706   1.506       .  S
C700        C701   1.403       .  A
C700        H705   1.082       .  S
C701        C702   1.411       .  A
C702        C703   1.502       .  S
C703        H707   1.110       .  S
C703        H708   1.111       .  S
C703        H709   1.110       .  S
C706        H710   1.108       .  S
C706        H711   1.110       .  S
C706        H712   1.110       .  S
C713        C714   1.403       .  A
C713        C718   1.404       .  A
C713        H720   1.083       .  S
C714        C715   1.415       .  A
C715        C716   1.404       .  A
C715        C722   1.507       .  S
C716        C717   1.405       .  A
C716        H721   1.084       .  S
C717        C718   1.414       .  A
C718        C719   1.506       .  S
C719        H723   1.111       .  S
C719        H724   1.109       .  S
C719        H725   1.109       .  S
C722        H726   1.107       .  S
C722        H727   1.110       .  S
C722        H728   1.110       .  S
C729        C730   1.399       .  A
C729        C734   1.400       .  A
C729        H736   1.081       .  S
C730        C731   1.413       .  A
C731        C732   1.405       .  A
C731        C738   1.504       .  S
C732        C733   1.406       .  A
C732        H737   1.084       .  S
C733        C734   1.417       .  A
C734        C735   1.505       .  S
C735        H739   1.111       .  S
C735        H740   1.110       .  S
C735        H741   1.101       .  S
C738        H742   1.107       .  S
C738        H743   1.110       .  S
C738        H744   1.110       .  S
C745        C746   1.402       .  A
C745        C750   1.403       .  A
C745        H752   1.083       .  S
C746        C747   1.416       .  A
C747        C748   1.405       .  A
C747        C754   1.507       .  S
C748        C749   1.402       .  A
C748        H753   1.084       .  S
C749        C750   1.412       .  A
C750        C751   1.506       .  S
C751        H755   1.111       .  S
C751        H756   1.110       .  S
C751        H757   1.110       .  S
C754        H758   1.108       .  S
C754        H759   1.110       .  S
C754        H760   1.111       .  S
C761        C762   1.398       .  A
C761        C766   1.398       .  A
C761        H768   1.083       .  S
C762        C763   1.415       .  A
C763        C764   1.404       .  A
C763        C770   1.507       .  S
C764        C765   1.404       .  A
C764        H769   1.084       .  S
C765        C766   1.416       .  A
C766        C767   1.507       .  S
C767        H771   1.111       .  S
C767        H772   1.109       .  S
C767        H773   1.107       .  S
C770        H774   1.108       .  S
C770        H775   1.110       .  S
C770        H776   1.110       .  S
C777        C778   1.400       .  A
C777        C782   1.401       .  A
C777        H784   1.083       .  S
C778        C779   1.415       .  A
C779        C780   1.404       .  A
C779        C786   1.506       .  S
C780        C781   1.402       .  A
C780        H785   1.085       .  S
C781        C782   1.410       .  A
C782        C783   1.497       .  S
C783        H787   1.111       .  S
C783        H788   1.108       .  S
C783        H789   1.110       .  S
C786        H790   1.110       .  S
C786        H791   1.108       .  S
C786        H792   1.110       .  S
C793        C794   1.406       .  A
C793        C798   1.406       .  A
C793        H800   1.084       .  S
C794        C795   1.416       .  A
C795        C796   1.400       .  A
C795        C802   1.504       .  S
C796        C797   1.400       .  A
C796        H801   1.082       .  S
C797        C798   1.413       .  A
C798        C799   1.504       .  S
C799        H803   1.110       .  S
C799        H804   1.107       .  S
C799        H805   1.110       .  S
C802        H806   1.110       .  S
C802        H807   1.101       .  S
C802        H808   1.111       .  S
C809        C810   1.401       .  A
C809        C814   1.403       .  A
C809        H816   1.083       .  S
C810        C811   1.416       .  A
C811        C812   1.405       .  A
C811        C818   1.506       .  S
C812        C813   1.403       .  A
C812        H817   1.084       .  S
C813        C814   1.416       .  A
C814        C815   1.508       .  S
C815        H819   1.111       .  S
C815        H820   1.111       .  S
C815        H821   1.109       .  S
C818        H822   1.111       .  S
C818        H823   1.108       .  S
C818        H824   1.110       .  S
C825        C826   1.401       .  A
C825        C830   1.403       .  A
C825        H832   1.083       .  S
C826        C827   1.413       .  A
C827        C828   1.403       .  A
C827        C834   1.504       .  S
C828        C829   1.404       .  A
C828        H833   1.085       .  S
C829        C830   1.417       .  A
C830        C831   1.507       .  S
C831        H835   1.110       .  S
C831        H836   1.107       .  S
C831        H837   1.110       .  S
C834        H838   1.107       .  S
C834        H839   1.110       .  S
C834        H840   1.111       .  S
C841        C842   1.404       .  A
C841        C846   1.402       .  A
C841        H848   1.084       .  S
C842        C843   1.420       .  A
C843        C844   1.400       .  A
C843        C850   1.505       .  S
C844        C845   1.398       .  A
C844        H849   1.083       .  S
C845        C846   1.412       .  A
C846        C847   1.504       .  S
C847        H851   1.111       .  S
C847        H852   1.107       .  S
C847        H853   1.109       .  S
C850        H854   1.100       .  S
C850        H855   1.110       .  S
C850        H856   1.111       .  S
C857        C858   1.404       .  A
C857        C862   1.405       .  A
C857        H864   1.084       .  S
C858        C859   1.415       .  A
C859        C860   1.403       .  A
C859        C866   1.504       .  S
C860        C861   1.404       .  A
C860        H865   1.085       .  S
C861        C862   1.416       .  A
C862        C863   1.506       .  S
C863        H867   1.111       .  S
C863        H868   1.109       .  S
C863        H869   1.109       .  S
C866        H870   1.110       .  S
C866        H871   1.106       .  S
C866        H872   1.110       .  S
C873        C874   1.406       .  A
C873        C878   1.404       .  A
C873        H880   1.083       .  S
C874        C875   1.414       .  A
C875        C876   1.401       .  A
C875        C882   1.507       .  S
C876        C877   1.406       .  A
C876        H881   1.084       .  S
C877        C878   1.417       .  A
C878        C879   1.507       .  S
C879        H883   1.111       .  S
C879        H884   1.110       .  S
C879        H885   1.106       .  S
C882        H886   1.107       .  S
C882        H887   1.110       .  S
C882        H888   1.110       .  S
C889        C890   1.402       .  A
C889        C894   1.404       .  A
C889        H896   1.084       .  S
C890        C891   1.415       .  A
C891        C892   1.404       .  A
C891        C898   1.506       .  S
C892        C893   1.402       .  A
C892        H897   1.082       .  S
C893        C894   1.414       .  A
C894        C895   1.507       .  S
C895        H899   1.111       .  S
C895        H900   1.110       .  S
C895        H901   1.109       .  S
C898        H902   1.110       .  S
C898        H903   1.107       .  S
C898        H904   1.110       .  S
C905        C906   1.402       .  A
C905        C910   1.403       .  A
C905        H912   1.084       .  S
C906        C907   1.417       .  A
C907        C908   1.406       .  A
C907        C914   1.505       .  S
C908        C909   1.402       .  A
C908        H913   1.083       .  S
C909        C910   1.411       .  A
C910        C911   1.500       .  S
C911        H915   1.111       .  S
C911        H916   1.111       .  S
C911        H917   1.109       .  S
C914        H918   1.106       .  S
C914        H919   1.110       .  S
C914        H920   1.110       .  S
C921        C922   1.404       .  A
C921        C926   1.403       .  A
C921        H928   1.084       .  S
C922        C923   1.415       .  A
C923        C924   1.400       .  A
C923        C930   1.507       .  S
C924        C925   1.400       .  A
C924        H929   1.083       .  S
C925        C926   1.414       .  A
C926        C927   1.506       .  S
C927        H931   1.110       .  S
C927        H932   1.108       .  S
C927        H933   1.110       .  S
C930        H934   1.109       .  S
C930        H935   1.110       .  S
C930        H936   1.111       .  S
C937        C938   1.401       .  A
C937        C942   1.404       .  A
C937        H944   1.085       .  S
C938        C939   1.410       .  A
C939        C940   1.399       .  A
C939        C946   1.499       .  S
C940        C941   1.400       .  A
C940        H945   1.083       .  S
C941        C942   1.418       .  A
C942        C943   1.506       .  S
C943        H947   1.110       .  S
C943        H948   1.110       .  S
C943        H949   1.108       .  S
C946        H950   1.108       .  S
C946        H951   1.111       .  S
C946        H952   1.111       .  S
C953        C954   1.407       .  A
C953        C958   1.405       .  A
C953        H960   1.084       .  S
C954        C955   1.419       .  A
C955        C956   1.399       .  A
C955        C962   1.505       .  S
C956        C957   1.399       .  A
C956        H961   1.084       .  S
C957        C958   1.411       .  A
C958        C959   1.505       .  S
C959        H963   1.110       .  S
C959        H964   1.108       .  S
C959        H965   1.110       .  S
C962        H966   1.110       .  S
C962        H967   1.099       .  S
C962        H968   1.110       .  S
C969        C970   1.399       .  A
C969        C974   1.404       .  A
C969        H976   1.085       .  S
C970        C971   1.408       .  A
C971        C972   1.402       .  A
C971        C978   1.507       .  S
C972        C973   1.407       .  A
C972        H977   1.083       .  S
C973        C974   1.420       .  A
C974        C975   1.506       .  S
C975        H979   1.110       .  S
C975        H980   1.107       .  S
C975        H981   1.110       .  S
C978        H982   1.111       .  S
C978        H983   1.110       .  S
C978        H984   1.111       .  S
