geometry optimzed in LAMMPS
_audit_creation_date              2020-12-01 
_audit_creation_method            'lammps2cif' 
_symmetry_space_group_name_H-M    'P1' 
_symmetry_Int_Tables_number       1 
_symmetry_cell_setting            triclinic 
loop_ 
_symmetry_equiv_pos_as_xyz 
  x,y,z 
_cell_length_a                    49.37091245 
_cell_length_b                    49.479157540620136 
_cell_length_c                    49.41193401392544 
_cell_angle_alpha                 90.1150002831549 
_cell_angle_beta                  89.37702999656987 
_cell_angle_gamma                 90.24954702072986 
loop_ 
_atom_site_label 
_atom_site_type_symbol 
_atom_site_fract_x 
_atom_site_fract_y 
_atom_site_fract_z 
_atom_site_charge 
C1          C  0.19621735  0.79737844  0.47796592     0.03800
C2          C  0.16826143  0.80210330  0.48158297    -0.12300
C3          C  0.15726795  0.80919494  0.50670681     0.01300
C4          C  0.17233242  0.80479409  0.52993694    -0.10800
C5          C  0.19932255  0.79629196  0.52814081     0.03800
C6          C  0.21188602  0.79426734  0.50203778    -0.10300
H7          H  0.15512176  0.80299392  0.46425502     0.09400
H8          H  0.16330086  0.80905687  0.54958876     0.07000
H9          H  0.23341889  0.79066971  0.50091587     0.06800
C10         C  0.80547782  0.20943898  0.53279559     0.03800
C11         C  0.79170722  0.21415488  0.50817694    -0.12300
C12         C  0.80388964  0.20641621  0.48322577     0.01300
C13         C  0.82924858  0.19396213  0.48331087    -0.10800
C14         C  0.84272346  0.18925107  0.50749423     0.03800
C15         C  0.83093597  0.19708810  0.53201810    -0.10300
H16         H  0.77204395  0.22377833  0.50843034     0.09400
H17         H  0.83845835  0.18755751  0.46434540     0.07000
H18         H  0.84148893  0.19309655  0.55074992     0.06800
C19         C  0.78265840  0.81502852  0.46716926     0.03800
C20         C  0.79890413  0.83819952  0.46494854    -0.12300
C21         C  0.80820488  0.85163566  0.48793060     0.01300
C22         C  0.80084701  0.84228706  0.51363673    -0.10800
C23         C  0.78524602  0.81881857  0.51677512     0.03800
C24         C  0.77609785  0.80492732  0.49336283    -0.10300
H25         H  0.80504834  0.84543269  0.44500893     0.09400
H26         H  0.80832792  0.85270417  0.53135129     0.07000
H27         H  0.76429846  0.78654931  0.49547331     0.06800
C28         C  0.47383343  0.76883089  0.19521508     0.03800
C29         C  0.47382653  0.78733836  0.17392924    -0.12300
C30         C  0.49772578  0.79418095  0.16037680     0.01300
C31         C  0.52198539  0.78199981  0.16764757    -0.10800
C32         C  0.52311619  0.76445726  0.18977096     0.03800
C33         C  0.49872018  0.75761099  0.20373500    -0.10300
H34         H  0.45507957  0.79714987  0.16841799     0.09400
H35         H  0.54056245  0.78787122  0.15723060     0.07000
H36         H  0.49915719  0.74420910  0.22101093     0.06800
C37         C  0.78478196  0.46460070  0.21318291     0.03800
C38         C  0.80251626  0.46334592  0.19098611    -0.12300
C39         C  0.81190078  0.48685010  0.17843853     0.01300
C40         C  0.80379877  0.51199659  0.18835631    -0.10800
C41         C  0.78662740  0.51396772  0.21097671     0.03800
C42         C  0.77682423  0.49008934  0.22352895    -0.10300
H43         H  0.80905640  0.44385442  0.18338623     0.09400
H44         H  0.81099376  0.53029263  0.17838513     0.07000
H45         H  0.76324459  0.49131961  0.24081756     0.06800
C46         C  0.78855730  0.48264300  0.77582362     0.03800
C47         C  0.80652860  0.48084012  0.79754998    -0.12300
C48         C  0.81780066  0.50393080  0.80911038     0.01300
C49         C  0.81091331  0.52936157  0.79947707    -0.10800
C50         C  0.79268432  0.53209634  0.77821911     0.03800
C51         C  0.78138651  0.50862693  0.76612634    -0.10300
H52         H  0.81197041  0.46119395  0.80551851     0.09400
H53         H  0.81974657  0.54722782  0.80870252     0.07000
H54         H  0.76738800  0.51057035  0.74956281     0.06800
C55         C  0.47463623  0.20938659  0.80057960     0.03800
C56         C  0.47400934  0.19083733  0.82182587    -0.12300
C57         C  0.49783798  0.18205408  0.83360740     0.01300
C58         C  0.52282395  0.19170212  0.82426572    -0.10800
C59         C  0.52424226  0.21035096  0.80300167     0.03800
C60         C  0.49993197  0.21940436  0.79101067    -0.10300
H61         H  0.45473796  0.18307794  0.82924700     0.09400
H62         H  0.54127664  0.18453545  0.83349902     0.07000
H63         H  0.50068504  0.23387952  0.77461375     0.06800
C64         C  0.21109643  0.52939687  0.79716827     0.03800
C65         C  0.18991156  0.52969224  0.81614417    -0.12300
C66         C  0.17799496  0.50570390  0.82505416     0.01300
C67         C  0.18737252  0.48099689  0.81524323    -0.10800
C68         C  0.20904484  0.47982325  0.79686241     0.03800
C69         C  0.22105929  0.50425050  0.78749810    -0.10300
H70         H  0.18249849  0.54880195  0.82391649     0.09400
H71         H  0.17793917  0.46237829  0.82235171     0.07000
H72         H  0.23766403  0.50370372  0.77303073     0.06800
C73         C  0.48360541  0.79116936  0.79032595     0.03800
C74         C  0.48271007  0.80884075  0.81234523    -0.12300
C75         C  0.50594337  0.82215116  0.82106920     0.01300
C76         C  0.53086328  0.81633874  0.80883588    -0.10800
C77         C  0.53277723  0.79728271  0.78791223     0.03800
C78         C  0.50886976  0.78488826  0.77810171    -0.10300
H79         H  0.46340543  0.81322948  0.82203642     0.09400
H80         H  0.54895974  0.82667299  0.81565150     0.07000
H81         H  0.50989549  0.77083572  0.76127834     0.06800
C82         C  0.02059501  0.28835372  0.30303779     0.03800
C83         C  0.99598744  0.28088061  0.29045698    -0.12300
C84         C  0.97096607  0.28955518  0.30172800     0.01300
C85         C  0.97091560  0.30532574  0.32522274    -0.10800
C86         C  0.99507067  0.31260624  0.33756684     0.03800
C87         C  0.01971561  0.30422622  0.32653057    -0.10300
H88         H  0.99629997  0.26840492  0.27226328     0.09400
H89         H  0.95189082  0.31209019  0.33392488     0.07000
H90         H  0.03840830  0.31027344  0.33622433     0.06800
C91         C  0.23599118  0.27863112  0.24512532     0.03000
C92         C  0.22278676  0.26584647  0.26782444     0.03000
C93         C  0.23550447  0.24339630  0.28092654     0.03000
C94         C  0.25757857  0.22981683  0.26764161     0.03000
C95         C  0.27084518  0.24264918  0.24525910     0.03000
C96         C  0.25863083  0.26550071  0.23250263     0.03000
C97         C  0.28599870  0.02870314  0.30812594     0.03800
C98         C  0.29907101  0.02778354  0.33313656    -0.12300
C99         C  0.30843049  0.00334279  0.34357350     0.01300
C100        C  0.30386947  0.97932099  0.32936060    -0.10800
C101        C  0.29034506  0.97920646  0.30457839     0.03800
C102        C  0.28141525  0.00420717  0.29374924    -0.10300
H103        H  0.30284746  0.04638424  0.34411623     0.09400
H104        H  0.31126308  0.96043652  0.33756701     0.07000
H105        H  0.27130895  0.00462050  0.27442196     0.06800
C106        C  0.23743891  0.76537856  0.27438322     0.03000
C107        C  0.22459160  0.74226195  0.26195351     0.03000
C108        C  0.23706904  0.72915857  0.23913409     0.03000
C109        C  0.25901360  0.74215821  0.22544052     0.03000
C110        C  0.27227874  0.76481041  0.23774870     0.03000
C111        C  0.25998654  0.77832196  0.26055026     0.03000
C112        C  0.72233672  0.22875634  0.24873413     0.03000
C113        C  0.73562831  0.21552505  0.27070809     0.03000
C114        C  0.75844523  0.22826774  0.28327351     0.03000
C115        C  0.77084771  0.25130605  0.27046227     0.03000
C116        C  0.75737612  0.26441975  0.24863954     0.03000
C117        C  0.73484073  0.25152025  0.23592437     0.03000
C118        C  0.70047377  0.01365605  0.28805358     0.03800
C119        C  0.67732898  0.01331867  0.30451551    -0.12300
C120        C  0.66516417  0.98901980  0.31186213     0.01300
C121        C  0.67576441  0.96464907  0.30264725    -0.10800
C122        C  0.69891090  0.96418891  0.28612419     0.03800
C123        C  0.71157622  0.98891577  0.27866730    -0.10300
H124        H  0.66884825  0.03212717  0.31191310     0.09400
H125        H  0.66616524  0.94578308  0.30882245     0.07000
H126        H  0.72960845  0.98889450  0.26601166     0.06800
C127        C  0.72384855  0.75022214  0.23448051     0.03000
C128        C  0.73500322  0.76383987  0.25747890     0.03000
C129        C  0.75771133  0.75253674  0.27121343     0.03000
C130        C  0.77213884  0.73046077  0.25888369     0.03000
C131        C  0.76051741  0.71660515  0.23624441     0.03000
C132        C  0.73849580  0.72868228  0.22203718     0.03000
C133        C  0.02375535  0.70409022  0.28715614     0.03800
C134        C  0.02432991  0.68257315  0.30547021    -0.12300
C135        C  0.00038080  0.67111325  0.31521772     0.01300
C136        C  0.97550599  0.68078944  0.30657571    -0.10800
C137        C  0.97416454  0.70201829  0.28796933     0.03800
C138        C  0.99850208  0.71399653  0.27820523    -0.10300
H139        H  0.04355664  0.67497346  0.31252623     0.09400
H140        H  0.95697068  0.67165048  0.31438303     0.07000
H141        H  0.99780335  0.73061776  0.26402011     0.06800
C142        C  0.29563797  0.29549621  0.03160500     0.03800
C143        C  0.28333280  0.28668899  0.00733140    -0.12300
C144        C  0.29484965  0.29429167  0.98207504     0.01300
C145        C  0.31812754  0.31041828  0.98149639    -0.10800
C146        C  0.33033380  0.31883305  0.00536579     0.03800
C147        C  0.31914271  0.31136113  0.03028808    -0.10300
H148        H  0.26528829  0.27420106  0.00807997     0.09400
H149        H  0.32686149  0.31655831  0.96214317     0.07000
H150        H  0.32877247  0.31794540  0.04876843     0.06800
C151        C  0.27410457  0.24243400  0.76822474     0.03000
C152        C  0.26098843  0.26477236  0.78135980     0.03000
C153        C  0.23855557  0.27756850  0.76859887     0.03000
C154        C  0.22546361  0.26437369  0.74634635     0.03000
C155        C  0.23824063  0.24163432  0.73360142     0.03000
C156        C  0.26110374  0.22921388  0.74610476     0.03000
C157        C  0.30392764  0.02944187  0.71877664     0.03800
C158        C  0.29064424  0.00475663  0.72518152    -0.12300
C159        C  0.30143277  0.98008447  0.71538715     0.01300
C160        C  0.32476580  0.98046347  0.69921044    -0.10800
C161        C  0.33811865  0.00463753  0.69335253     0.03800
C162        C  0.32777857  0.02896818  0.70318396    -0.10300
H163        H  0.27242881  0.00475401  0.73757201     0.09400
H164        H  0.33286112  0.96160557  0.69135760     0.07000
H165        H  0.33815697  0.04776262  0.69829549     0.06800
C166        C  0.26906906  0.77831650  0.74003177     0.03000
C167        C  0.24680920  0.76540762  0.72690527     0.03000
C168        C  0.23394183  0.74259770  0.73970385     0.03000
C169        C  0.24650895  0.72977873  0.76239515     0.03000
C170        C  0.26901971  0.74269702  0.77529916     0.03000
C171        C  0.28195866  0.76516250  0.76228446     0.03000
C172        C  0.03448148  0.72119163  0.69607861     0.03800
C173        C  0.00901018  0.72894412  0.70696752    -0.12300
C174        C  0.98495725  0.72079563  0.69381186     0.01300
C175        C  0.98675167  0.70455897  0.67064385    -0.10800
C176        C  0.01187997  0.69694691  0.65993724     0.03800
C177        C  0.03555284  0.70573174  0.67236920    -0.10300
H178        H  0.00793579  0.74109080  0.72520944     0.09400
H179        H  0.96836835  0.69752161  0.66103982     0.07000
H180        H  0.05503074  0.69977755  0.66397546     0.06800
C181        C  0.02376659  0.29978968  0.71944776     0.03800
C182        C  0.02344228  0.32120594  0.70104349    -0.12300
C183        C  0.99907515  0.33190599  0.69218128     0.01300
C184        C  0.97455572  0.32152760  0.70184908    -0.10800
C185        C  0.97394428  0.30021701  0.72041803     0.03800
C186        C  0.99879110  0.28902174  0.72929228    -0.10300
H187        H  0.04240652  0.32947097  0.69327203     0.09400
H188        H  0.95574040  0.32997094  0.69464505     0.07000
H189        H  0.99869935  0.27245463  0.74356438     0.06800
C190        C  0.75951027  0.24480872  0.73172399     0.03000
C191        C  0.76996093  0.26952532  0.74256497     0.03000
C192        C  0.75464236  0.28270959  0.76362484     0.03000
C193        C  0.74055921  0.26510339  0.78222201     0.03000
C194        C  0.72687268  0.24229494  0.77011444     0.03000
C195        C  0.73819105  0.23086417  0.74579825     0.03000
C196        C  0.71584998  0.03195365  0.69541732     0.03800
C197        C  0.70006013  0.02839661  0.67224953    -0.12300
C198        C  0.69019470  0.00278299  0.66515138     0.01300
C199        C  0.69699696  0.98045087  0.68088850    -0.10800
C200        C  0.71395594  0.98321165  0.70321352     0.03800
C201        C  0.72324782  0.00912456  0.71077446    -0.10300
H202        H  0.69445148  0.04585152  0.66034731     0.09400
H203        H  0.68923290  0.96062108  0.67558067     0.07000
H204        H  0.73580608  0.01152952  0.72845925     0.06800
C205        C  0.77023554  0.77220005  0.71864771     0.03000
C206        C  0.74817243  0.78473956  0.73297543     0.03000
C207        C  0.73505973  0.77076420  0.75475371     0.03000
C208        C  0.74795738  0.74784431  0.76666893     0.03000
C209        C  0.77007731  0.73528978  0.75257029     0.03000
C210        C  0.78287605  0.74890117  0.73011918     0.03000
C211        C  0.29384103  0.70128176  0.02539416     0.03800
C212        C  0.28793340  0.71434368  0.00062088    -0.12300
C213        C  0.29920919  0.70442996  0.97603398     0.01300
C214        C  0.31640528  0.68206547  0.97668404    -0.10800
C215        C  0.32183676  0.66881876  0.00094986     0.03800
C216        C  0.31036221  0.67833359  0.02511072    -0.10300
H217        H  0.27486483  0.73183693  0.00048501     0.09400
H218        H  0.32541724  0.67466282  0.95797637     0.07000
H219        H  0.31472465  0.66809007  0.04394428     0.06800
C220        C  0.71234046  0.29535893  0.03516810     0.03800
C221        C  0.69889516  0.32022434  0.03406608    -0.12300
C222        C  0.69353997  0.33246330  0.00927452     0.01300
C223        C  0.70232592  0.32025932  0.98533469    -0.10800
C224        C  0.71521300  0.29510639  0.98535516     0.03800
C225        C  0.72046325  0.28251210  0.01061240    -0.10300
H226        H  0.69207931  0.32987048  0.05262969     0.09400
H227        H  0.69795539  0.32997801  0.96623182     0.07000
H228        H  0.73038708  0.26307631  0.01116327     0.06800
C229        C  0.71508824  0.70553362  0.01776886     0.03800
C230        C  0.72632923  0.71651326  0.99343934    -0.12300
C231        C  0.71615792  0.70790746  0.96791342     0.01300
C232        C  0.69507502  0.68893689  0.96736395    -0.10800
C233        C  0.68417527  0.67842726  0.99124590     0.03800
C234        C  0.69415802  0.68659581  0.01612499    -0.10300
H235        H  0.74254970  0.73126580  0.99434453     0.09400
H236        H  0.68697949  0.68232121  0.94814032     0.07000
H237        H  0.68522486  0.67832118  0.03454608     0.06800
C238        C  0.47144812  0.20979559  0.21363633     0.03800
C239        C  0.47078311  0.19104847  0.19244273    -0.12300
C240        C  0.49469790  0.18105036  0.18122970     0.01300
C241        C  0.51957679  0.19008731  0.19071890    -0.10800
C242        C  0.52097801  0.20819727  0.21233738     0.03800
C243        C  0.49673101  0.21831081  0.22404643    -0.10300
H244        H  0.45147859  0.18371602  0.18504753     0.09400
H245        H  0.53809750  0.18201508  0.18191164     0.07000
H246        H  0.49750928  0.23231395  0.24088911     0.06800
C247        C  0.20095615  0.47843226  0.20163499     0.03800
C248        C  0.18057290  0.47783272  0.18218554    -0.12300
C249        C  0.16882478  0.50171431  0.17293197     0.01300
C250        C  0.17813299  0.52667633  0.18240855    -0.10800
C251        C  0.19921960  0.52824019  0.20116493     0.03800
C252        C  0.21050850  0.50382524  0.21112846    -0.10300
H253        H  0.17347751  0.45885078  0.17474352     0.09400
H254        H  0.16885651  0.54517949  0.17512322     0.07000
H255        H  0.22659661  0.50461651  0.22617742     0.06800
C256        C  0.21588086  0.20450271  0.53228785     0.03800
C257        C  0.22220419  0.21820772  0.50782442    -0.12300
C258        C  0.21410919  0.20683854  0.48280606     0.01300
C259        C  0.19960862  0.18250814  0.48272169    -0.10800
C260        C  0.19363805  0.16897625  0.50679844     0.03800
C261        C  0.20210162  0.17979787  0.53132788    -0.10300
H262        H  0.23309654  0.23723846  0.50825445     0.09400
H263        H  0.19277626  0.17408794  0.46369425     0.07000
H264        H  0.19732314  0.16916135  0.55001456     0.06800
O265        O  0.98823528  0.03889611  0.50050476    -0.71100
O266        O  0.02244973  0.97096859  0.49927574    -0.71300
O267        O  0.03935470  0.02222459  0.50225406    -0.71100
O268        O  0.97127614  0.98764596  0.49722292    -0.71100
O269        O  0.97333199  0.99056309  0.45347582    -0.71100
O270        O  0.04248279  0.02311047  0.45833297    -0.71100
O271        O  0.02424785  0.97181463  0.45537926    -0.71100
O272        O  0.99161023  0.04132191  0.45667797    -0.71300
V273        V  0.00540227  0.00494041  0.49893511     1.35200
V274        V  0.00794168  0.00663114  0.45677343     1.35200
C275        C  0.98409366  0.05170437  0.47891265     0.78200
C276        C  0.02878054  0.95950333  0.47729286     0.78200
C277        C  0.05225526  0.02893509  0.48112040     0.78100
C278        C  0.96048287  0.98345768  0.47452174     0.78100
O279        O  0.51677995  0.96635428  0.02935931    -0.71100
O280        O  0.51486960  0.02559462  0.98129822    -0.71300
O281        O  0.51636558  0.02015825  0.03511038    -0.71100
O282        O  0.51522909  0.97198727  0.97583846    -0.71100
O283        O  0.47124356  0.97017053  0.97854263    -0.71100
O284        O  0.47259804  0.02096146  0.03564579    -0.71100
O285        O  0.47098469  0.02426061  0.98211190    -0.71100
O286        O  0.47282099  0.96680850  0.03226541    -0.71300
V287        V  0.51497910  0.99603497  0.00548040     1.35200
V288        V  0.47274361  0.99553969  0.00713885     1.35200
C289        C  0.49509368  0.95633746  0.03873704     0.78200
C290        C  0.49259463  0.03498952  0.97333360     0.78200
C291        C  0.49469568  0.02952945  0.04506968     0.78100
C292        C  0.49306639  0.96257607  0.96745606     0.78100
O293        O  0.96537557  0.46695544  0.96392431    -0.71100
O294        O  0.01469996  0.46382491  0.02201125    -0.71300
O295        O  0.96086661  0.46024872  0.01745160    -0.71100
O296        O  0.01919362  0.47041954  0.96826003    -0.71100
O297        O  0.01570694  0.51396909  0.97298934    -0.71100
O298        O  0.95819688  0.50379062  0.02289005    -0.71100
O299        O  0.01210678  0.50736903  0.02640923    -0.71100
O300        O  0.96194342  0.51039201  0.96955870    -0.71300
V301        V  0.99001432  0.46617829  0.99299723     1.35200
V302        V  0.98706258  0.50801138  0.99790327     1.35200
C303        C  0.95510016  0.48922649  0.95707581     0.78200
C304        C  0.02189585  0.48517709  0.03407971     0.78200
C305        C  0.94960251  0.48037052  0.02844579     0.78100
C306        C  0.02709372  0.49392283  0.96201069     0.78100
O307        O  0.53926252  0.47616107  0.00357863    -0.71100
O308        O  0.47632645  0.51936771  0.00562534    -0.71300
O309        O  0.48584135  0.46637742  0.00523850    -0.71100
O310        O  0.52969493  0.52880858  0.00405807    -0.71100
O311        O  0.52747129  0.52991351  0.96023836    -0.71100
O312        O  0.48626587  0.46531638  0.96129942    -0.71100
O313        O  0.47459291  0.51816997  0.96170557    -0.71100
O314        O  0.53929293  0.47728518  0.95959473    -0.71300
V315        V  0.50771516  0.49764129  0.00376743     1.35200
V316        V  0.50688388  0.49763817  0.96152924     1.35200
C317        C  0.55037259  0.46998682  0.98128664     0.78200
C318        C  0.46478756  0.52617803  0.98401635     0.78200
C319        C  0.47860851  0.45513364  0.98353610     0.78100
C320        C  0.53626552  0.53992230  0.98198998     0.78100
O321        O  0.01176136  0.47808274  0.53336802    -0.71100
O322        O  0.01188169  0.52082934  0.47039879    -0.71300
O323        O  0.01445377  0.53135684  0.52301148    -0.71100
O324        O  0.00873726  0.46761349  0.48086834    -0.71100
O325        O  0.96497628  0.46880884  0.48555193    -0.71100
O326        O  0.97065074  0.53519359  0.52284557    -0.71100
O327        O  0.96801324  0.52103678  0.47076633    -0.71100
O328        O  0.96825634  0.48281372  0.53743873    -0.71300
V329        V  0.01087801  0.49952634  0.50195811     1.35200
V330        V  0.96877296  0.50194455  0.50411408     1.35200
C331        C  0.99009236  0.47286917  0.54608781     0.78200
C332        C  0.99010253  0.52833607  0.45969687     0.78200
C333        C  0.99346315  0.54455330  0.52941321     0.78100
C334        C  0.98583677  0.45690703  0.47679630     0.78100
O335        O  0.48155642  0.00432555  0.53573632    -0.71100
O336        O  0.51820258  0.00304154  0.46830931    -0.71300
O337        O  0.46599305  0.00350741  0.48409295    -0.71100
O338        O  0.53343340  0.00380590  0.52012476    -0.71100
O339        O  0.53326584  0.95988354  0.51992311    -0.71100
O340        O  0.46523093  0.95961084  0.48537030    -0.71100
O341        O  0.51668575  0.95927249  0.46834960    -0.71100
O342        O  0.48178736  0.96039273  0.53667189    -0.71300
V343        V  0.49977941  0.00284073  0.50201037     1.35200
V344        V  0.49929950  0.96064908  0.50253563     1.35200
C345        C  0.47550951  0.98256664  0.54766600     0.78200
C346        C  0.52377114  0.98093053  0.45676770     0.78200
C347        C  0.45407691  0.98149084  0.47875258     0.78100
C348        C  0.54450110  0.98183076  0.52667509     0.78100
C349        C  0.16820846  0.09938677  0.48726865    -0.04700
C350        C  0.14239467  0.09950856  0.49961289     0.09400
C351        C  0.13453233  0.12097456  0.51670644    -0.02100
C352        C  0.15151231  0.14357899  0.51951765    -0.00400
C353        C  0.17702299  0.14408599  0.50624510    -0.04000
C354        C  0.18578383  0.12147234  0.49101464     0.03000
C355        C  0.12184857  0.07908122  0.49198511     0.09900
C356        C  0.10834357  0.12022936  0.53037092     0.35700
C357        C  0.21268459  0.12113595  0.47888888     0.39200
C358        C  0.11982550  0.05447136  0.50610631    -0.04400
C359        C  0.09770220  0.03713763  0.50146030     0.02800
C360        C  0.07737442  0.04482326  0.48313367    -0.04000
C361        C  0.07990364  0.06921167  0.46847188    -0.00200
C362        C  0.10245208  0.08600942  0.47250193    -0.02800
C363        C  0.13991367  0.04761417  0.52612348     0.36500
C364        C  0.05824107  0.07831372  0.45108522     0.40100
C365        C  0.09565376  0.01161734  0.51577235     0.39200
C366        C  0.10512052  0.11117182  0.45758476     0.36200
C367        C  0.17611714  0.07708592  0.46985379     0.36800
C368        C  0.14188035  0.16694800  0.53456003     0.40100
N369        N  0.09394628  0.99124965  0.52715374    -0.38000
N370        N  0.15592779  0.04222233  0.54214339    -0.39600
N371        N  0.04087776  0.08578346  0.43748037    -0.37300
N372        N  0.10734636  0.13125155  0.44577990    -0.39700
N373        N  0.08747527  0.11949881  0.54124697    -0.39500
N374        N  0.13416312  0.18559680  0.54648244    -0.37100
N375        N  0.23414909  0.12094699  0.46924166    -0.38200
N376        N  0.18234871  0.05931290  0.45589244    -0.39800
C377        C  0.12824652  0.50730008  0.10820532    -0.04700
C378        C  0.10501373  0.49207301  0.11518075     0.09400
C379        C  0.10213243  0.48106580  0.14129148    -0.02100
C380        C  0.12245707  0.48531695  0.16054124    -0.00400
C381        C  0.14622275  0.49987413  0.15344535    -0.04000
C382        C  0.14892961  0.51111444  0.12725716     0.03000
C383        C  0.08279404  0.48880228  0.09539971     0.09900
C384        C  0.07820340  0.46528774  0.14823233     0.35700
C385        C  0.17312978  0.52615038  0.11968826     0.39200
C386        C  0.08415347  0.46845239  0.07547171    -0.04400
C387        C  0.06367594  0.46634672  0.05594790     0.02800
C388        C  0.04170645  0.48470436  0.05641673    -0.04000
C389        C  0.03966878  0.50396408  0.07760833    -0.00200
C390        C  0.06036183  0.50620378  0.09676987    -0.02800
C391        C  0.10688444  0.44995616  0.07490934     0.36500
C392        C  0.01603884  0.52119526  0.08021640     0.40100
C393        C  0.06588448  0.44581511  0.03503012     0.39200
C394        C  0.05883353  0.52669710  0.11779494     0.36200
C395        C  0.13077166  0.51895915  0.08136322     0.36800
C396        C  0.11854193  0.47519308  0.18784966     0.40100
N397        N  0.06763366  0.42932726  0.01845866    -0.38000
N398        N  0.12501729  0.43521230  0.07446737    -0.39600
N399        N  0.99720202  0.53491264  0.08234085    -0.37300
N400        N  0.05770445  0.54299793  0.13459075    -0.39700
N401        N  0.05911651  0.45267518  0.15365257    -0.39500
N402        N  0.11521716  0.46710933  0.20959354    -0.37100
N403        N  0.19234603  0.53828695  0.11364488    -0.38200
N404        N  0.13266825  0.52818800  0.05991899    -0.39800
C405        C  0.47078666  0.07915150  0.09939541    -0.04700
C406        C  0.49425025  0.09483581  0.10294611     0.09400
C407        C  0.51827220  0.08856174  0.08886355    -0.02100
C408        C  0.51889231  0.06661501  0.07078127    -0.00400
C409        C  0.49507703  0.05093297  0.06637246    -0.04000
C410        C  0.47112693  0.05712517  0.08140632     0.03000
C411        C  0.49411188  0.11715452  0.12291466     0.09900
C412        C  0.54238151  0.10494631  0.09299692     0.35700
C413        C  0.44672565  0.04083467  0.07910123     0.39200
C414        C  0.50432503  0.11252522  0.14897280    -0.04400
C415        C  0.50419937  0.13343659  0.16811915     0.02800
C416        C  0.49390731  0.15906114  0.16115337    -0.04000
C417        C  0.48333654  0.16359607  0.13513721    -0.00200
C418        C  0.48364666  0.14262602  0.11590837    -0.02800
C419        C  0.51504169  0.08620577  0.15598593     0.36500
C420        C  0.47252751  0.18985103  0.12807865     0.40100
C421        C  0.51425578  0.12841655  0.19515018     0.39200
C422        C  0.47359769  0.14723092  0.08883047     0.36200
C423        C  0.44622821  0.08581005  0.11439929     0.36800
C424        C  0.54425959  0.06071269  0.05690717     0.40100
N425        N  0.52235073  0.12443433  0.21666033    -0.38000
N426        N  0.52368316  0.06524826  0.16150068    -0.39600
N427        N  0.46376569  0.21075076  0.12251894    -0.37300
N428        N  0.46565660  0.15084586  0.06719217    -0.39700
N429        N  0.56154999  0.11802069  0.09635679    -0.39500
N430        N  0.56469195  0.05609231  0.04619872    -0.37100
N431        N  0.42709937  0.02808734  0.07742313    -0.38200
N432        N  0.42667681  0.09125686  0.12629713    -0.39800
C433        C  0.64307155  0.61408007  0.99730971    -0.04700
C434        C  0.61771015  0.62303047  0.98813603     0.09400
C435        C  0.61383298  0.65026028  0.98100716    -0.02100
C436        C  0.63565818  0.66846141  0.98215104    -0.00400
C437        C  0.66132700  0.65931564  0.99031334    -0.04000
C438        C  0.66497554  0.63221745  0.99828489     0.03000
C439        C  0.59521976  0.60342641  0.98534013     0.09900
C440        C  0.58733273  0.65947998  0.97273584     0.35700
C441        C  0.69127142  0.62298507  0.00721924     0.39200
C442        C  0.57519476  0.60149420  0.00570398    -0.04400
C443        C  0.55468827  0.58187097  0.00367031     0.02800
C444        C  0.55498591  0.56327794  0.98182074    -0.04000
C445        C  0.57489584  0.56576523  0.96109528    -0.00200
C446        C  0.59460578  0.58621527  0.96265054    -0.02800
C447        C  0.57618361  0.61930427  0.02905743     0.36500
C448        C  0.57635981  0.54643602  0.93897847     0.40100
C449        C  0.53327561  0.58106587  0.02403398     0.39200
C450        C  0.61472456  0.58925007  0.94119970     0.36200
C451        C  0.64643956  0.58626769  0.00591182     0.36800
C452        C  0.63162021  0.69672048  0.97556105     0.40100
N453        N  0.51620747  0.58049322  0.04026972    -0.38000
N454        N  0.57710834  0.63348940  0.04767766    -0.39600
N455        N  0.57764546  0.53097920  0.92140214    -0.37300
N456        N  0.63072551  0.59174226  0.92408780    -0.39700
N457        N  0.56611010  0.66679414  0.96635813    -0.39500
N458        N  0.62850539  0.71929007  0.97040250    -0.37100
N459        N  0.71221693  0.61566856  0.01444129    -0.38200
N460        N  0.64899187  0.56410567  0.01285175    -0.39800
C461        C  0.66803487  0.40137128  0.98819042    -0.04700
C462        C  0.64050552  0.39939127  0.99586593     0.09400
C463        C  0.63116694  0.37673557  0.01065306    -0.02100
C464        C  0.64871789  0.35511241  0.01577995    -0.00400
C465        C  0.67617881  0.35675260  0.00758611    -0.04000
C466        C  0.68599880  0.38036991  0.99467591     0.03000
C467        C  0.62064757  0.42036588  0.98769223     0.09900
C468        C  0.60317228  0.37539832  0.01992601     0.35700
C469        C  0.71453738  0.38282976  0.98775763     0.39200
C470        C  0.60065094  0.41378028  0.96850433    -0.04400
C471        C  0.57797653  0.43058059  0.96546296     0.02800
C472        C  0.57580573  0.45447665  0.98094885    -0.04000
C473        C  0.59740691  0.46262441  0.99767001    -0.00200
C474        C  0.61962269  0.44536524  0.00139241    -0.02800
C475        C  0.60287213  0.38902099  0.95284824     0.36500
C476        C  0.59677729  0.48881767  0.01096057     0.40100
C477        C  0.55610806  0.42229277  0.94785183     0.39200
C478        C  0.64085835  0.45284004  0.02006498     0.36200
C479        C  0.67764098  0.42453001  0.97285778     0.36800
C480        C  0.63799056  0.33050241  0.02782929     0.40100
N481        N  0.53860038  0.41565919  0.93390197    -0.38000
N482        N  0.60468280  0.36925558  0.94040975    -0.39600
N483        N  0.59631180  0.50980169  0.02134673    -0.37300
N484        N  0.65790046  0.45886350  0.03482968    -0.39700
N485        N  0.58083685  0.37444905  0.02723048    -0.39500
N486        N  0.62937439  0.31083055  0.03726083    -0.37100
N487        N  0.73732952  0.38473459  0.98234249    -0.38200
N488        N  0.68532365  0.44300741  0.96062444    -0.39800
C489        C  0.38329729  0.62477272  0.01332589    -0.04700
C490        C  0.37759137  0.60244963  0.99651089     0.09400
C491        C  0.35285018  0.60096431  0.98267222    -0.02100
C492        C  0.33407714  0.62217553  0.98500478    -0.00400
C493        C  0.34025061  0.64519626  0.00085870    -0.04000
C494        C  0.36478972  0.64624985  0.01533402     0.03000
C495        C  0.39866573  0.58154486  0.99173120     0.09900
C496        C  0.34715610  0.57791532  0.96542128     0.35700
C497        C  0.37166636  0.66997826  0.03120940     0.39200
C498        C  0.39813460  0.55719127  0.00645638    -0.04400
C499        C  0.41939468  0.53853159  0.00332449     0.02800
C500        C  0.44089453  0.54399536  0.98499112    -0.04000
C501        C  0.44032860  0.56754245  0.96886144    -0.00200
C502        C  0.41944866  0.58646940  0.97256023    -0.02800
C503        C  0.37572033  0.55143152  0.02479126     0.36500
C504        C  0.46164293  0.57284570  0.94908598     0.40100
C505        C  0.41886581  0.51345530  0.01852011     0.39200
C506        C  0.41952740  0.61133177  0.95701169     0.36200
C507        C  0.40863436  0.62592663  0.02791462     0.36800
C508        C  0.30850480  0.62038363  0.97088905     0.40100
N509        N  0.41849431  0.49340659  0.03054972    -0.38000
N510        N  0.35769444  0.54674497  0.03922082    -0.39600
N511        N  0.47850346  0.57698911  0.93315396    -0.37300
N512        N  0.41956313  0.63123419  0.94474908    -0.39700
N513        N  0.34275154  0.55949347  0.95166483    -0.39500
N514        N  0.28816595  0.61903154  0.95952878    -0.37100
N515        N  0.37709086  0.68891569  0.04386198    -0.38200
N516        N  0.42885701  0.62682878  0.03951593    -0.39800
C517        C  0.71483913  0.72486308  0.83491955    -0.04700
C518        C  0.73513127  0.73193524  0.85365419     0.09400
C519        C  0.75949842  0.74310026  0.84379871    -0.02100
C520        C  0.76364192  0.74738030  0.81573424    -0.00400
C521        C  0.74327421  0.74087175  0.79651561    -0.04000
C522        C  0.71889944  0.72900848  0.80660604     0.03000
C523        C  0.73166151  0.72684732  0.88377312     0.09900
C524        C  0.78038005  0.75068322  0.86291056     0.35700
C525        C  0.69782635  0.72072397  0.78825778     0.39200
C526        C  0.74308940  0.70361191  0.89562981    -0.04400
C527        C  0.74062844  0.69902504  0.92385779     0.02800
C528        C  0.72638158  0.71738634  0.94074178    -0.04000
C529        C  0.71590501  0.74117891  0.92905739    -0.00200
C530        C  0.71869353  0.74597073  0.90080736    -0.02800
C531        C  0.75686715  0.68402644  0.87855837     0.36500
C532        C  0.70125403  0.76021264  0.94599619     0.40100
C533        C  0.75201102  0.67479862  0.93557207     0.39200
C534        C  0.70779549  0.77041761  0.88916394     0.36200
C535        C  0.68962697  0.71335204  0.84492525     0.36800
C536        C  0.78912844  0.75930279  0.80744217     0.40100
N537        N  0.76106800  0.65551953  0.94504868    -0.38000
N538        N  0.76780434  0.66843093  0.86484970    -0.39600
N539        N  0.68959441  0.77540983  0.95956004    -0.37300
N540        N  0.69903438  0.78997108  0.87997510    -0.39700
N541        N  0.79694451  0.75675400  0.87818682    -0.39500
N542        N  0.81001627  0.76899429  0.80288842    -0.37100
N543        N  0.68038746  0.71394224  0.77431713    -0.38200
N544        N  0.66947372  0.70425417  0.85297644    -0.39800
C545        C  0.65853039  0.97661171  0.60005919    -0.04700
C546        C  0.63380907  0.99069498  0.60024433     0.09400
C547        C  0.62779926  0.00911545  0.62124397    -0.02100
C548        C  0.64641044  0.01341719  0.64216913    -0.00400
C549        C  0.67129623  0.99934372  0.64215081    -0.04000
C550        C  0.67730481  0.98091913  0.62093827     0.03000
C551        C  0.61315658  0.98540701  0.57913616     0.09900
C552        C  0.60199087  0.02307795  0.62164588     0.35700
C553        C  0.70270159  0.96624752  0.62060918     0.39200
C554        C  0.59169666  0.96736140  0.58476268    -0.04400
C555        C  0.56948096  0.96583186  0.56726191     0.02800
C556        C  0.56907237  0.98175592  0.54351788    -0.04000
C557        C  0.59135318  0.99870639  0.53713633    -0.00200
C558        C  0.61335025  0.00056229  0.55500974    -0.02800
C559        C  0.59213348  0.95104191  0.60912773     0.36500
C560        C  0.59163498  0.01428011  0.51228753     0.40100
C561        C  0.54616628  0.94943241  0.57488376     0.39200
C562        C  0.63592650  0.01850458  0.54901495     0.36200
C563        C  0.66429476  0.95728901  0.57866864     0.36800
C564        C  0.63931708  0.03146496  0.66431666     0.40100
N565        N  0.52748000  0.93655762  0.58105748    -0.38000
N566        N  0.59255424  0.93798036  0.62851839    -0.39600
N567        N  0.59188712  0.02670501  0.49246372    -0.37300
N568        N  0.65402621  0.03273913  0.54430872    -0.39700
N569        N  0.58132636  0.03403039  0.62194577    -0.39500
N570        N  0.63373674  0.04591545  0.68194146    -0.37100
N571        N  0.72283195  0.95434203  0.62050244    -0.38200
N572        N  0.66882814  0.94183608  0.56161750    -0.39800
C573        C  0.75190515  0.91824553  0.71385090    -0.04700
C574        C  0.73166100  0.90226438  0.72648652     0.09400
C575        C  0.70814565  0.91484626  0.73692374    -0.02100
C576        C  0.70345904  0.94252671  0.73183205    -0.00400
C577        C  0.72254754  0.95787029  0.71678551    -0.04000
C578        C  0.74740478  0.94599339  0.70914062     0.03000
C579        C  0.73487964  0.87212216  0.72823034     0.09900
C580        C  0.68864064  0.89914330  0.75248488     0.35700
C581        C  0.76770227  0.96202929  0.69497591     0.39200
C582        C  0.74740005  0.86058161  0.75070032    -0.04400
C583        C  0.75114606  0.83234827  0.75211740     0.02800
C584        C  0.74287652  0.81490410  0.73068579    -0.04000
C585        C  0.72982512  0.82683518  0.70819021    -0.00200
C586        C  0.72563499  0.85519137  0.70724163    -0.02800
C587        C  0.75660107  0.87801827  0.77247659     0.36500
C588        C  0.72091785  0.81064180  0.68558248     0.40100
C589        C  0.76428626  0.82200795  0.77588130     0.39200
C590        C  0.71149450  0.86721611  0.68471110     0.36200
C591        C  0.77710107  0.90604505  0.70497341     0.36800
C592        C  0.67855745  0.95507809  0.74114622     0.40100
N593        N  0.77488161  0.81576691  0.79563154    -0.38000
N594        N  0.76393432  0.89190084  0.78981744    -0.39600
N595        N  0.71374034  0.79889381  0.66668721    -0.37300
N596        N  0.70004649  0.87710017  0.66700346    -0.39700
N597        N  0.67327349  0.88661003  0.76515620    -0.39500
N598        N  0.65871431  0.96515320  0.74859408    -0.37100
N599        N  0.78387516  0.97492611  0.68376195    -0.38200
N600        N  0.79741138  0.89675333  0.69780339    -0.39800
C601        C  0.70616325  0.27755380  0.91101292    -0.04700
C602        C  0.73318908  0.27526347  0.90158148     0.09400
C603        C  0.75426558  0.27503394  0.92091392    -0.02100
C604        C  0.74852186  0.27963179  0.94882022    -0.00400
C605        C  0.72151610  0.28301760  0.95797862    -0.04000
C606        C  0.70035306  0.28033599  0.93895686     0.03000
C607        C  0.73887649  0.27181443  0.87146687     0.09900
C608        C  0.78191057  0.27012713  0.91212975     0.35700
C609        C  0.67233968  0.28112818  0.94817953     0.39200
C610        C  0.75358973  0.29126180  0.85628058    -0.04400
C611        C  0.75779564  0.28777560  0.82789623     0.02800
C612        C  0.74404606  0.26660587  0.81355548    -0.04000
C613        C  0.73633061  0.24443930  0.83019591    -0.00200
C614        C  0.73096047  0.24790953  0.85814073    -0.02800
C615        C  0.76439474  0.31497080  0.86975619     0.36500
C616        C  0.74573071  0.21792243  0.82265145     0.40100
C617        C  0.77871006  0.30405837  0.81501359     0.39200
C618        C  0.71957159  0.22563054  0.87364716     0.36200
C619        C  0.68419979  0.27791729  0.89176981     0.36800
C620        C  0.77047845  0.28203002  0.96791666     0.40100
N621        N  0.79578580  0.31711650  0.80540670    -0.38000
N622        N  0.77316931  0.33382818  0.88049814    -0.39600
N623        N  0.75514080  0.19685546  0.81901460    -0.37300
N624        N  0.71037601  0.20793335  0.88601772    -0.39700
N625        N  0.80400475  0.26622036  0.90515560    -0.39500
N626        N  0.78794334  0.28397872  0.98324404    -0.37100
N627        N  0.65003967  0.28177806  0.95560949    -0.38200
N628        N  0.66674220  0.27820426  0.87634858    -0.39800
C629        C  0.75154410  0.15487279  0.73768225    -0.04700
C630        C  0.72891775  0.14581892  0.72316235     0.09400
C631        C  0.70847487  0.16442560  0.71651929    -0.02100
C632        C  0.71042263  0.19187359  0.72467552    -0.00400
C633        C  0.73362910  0.20137812  0.73863287    -0.04000
C634        C  0.75394565  0.18228582  0.74530006     0.03000
C635        C  0.72612947  0.11628951  0.71622716     0.09900
C636        C  0.68533158  0.15516439  0.70115859     0.35700
C637        C  0.77696015  0.19005462  0.76146018     0.39200
C638        C  0.70891764  0.09944808  0.73188303    -0.04400
C639        C  0.70695805  0.07153075  0.72611640     0.02800
C640        C  0.72186765  0.06018440  0.70436395    -0.04000
C641        C  0.73926182  0.07698473  0.68880507    -0.00200
C642        C  0.74150365  0.10487727  0.69481034    -0.02800
C643        C  0.69273076  0.11098797  0.75363432     0.36500
C644        C  0.75470394  0.06554451  0.66646257     0.40100
C645        C  0.68876557  0.05458739  0.74197734     0.39200
C646        C  0.75930197  0.12200619  0.67870234     0.36200
C647        C  0.77226143  0.13565403  0.74530020     0.36800
C648        C  0.68759179  0.20931418  0.71981624     0.40100
N649        N  0.67432953  0.04095327  0.75458832    -0.38000
N650        N  0.67955397  0.12017892  0.77080597    -0.39600
N651        N  0.76699269  0.05639361  0.64862040    -0.37300
N652        N  0.77353545  0.13573648  0.66595956    -0.39700
N653        N  0.66693429  0.14772367  0.68884201    -0.39500
N654        N  0.66837698  0.22196742  0.71590301    -0.37100
N655        N  0.79571013  0.19466193  0.77452935    -0.38200
N656        N  0.78875490  0.12031750  0.75133040    -0.39800
C657        C  0.99029249  0.40004047  0.65872619    -0.04700
C658        C  0.99677227  0.39360879  0.63162273     0.09400
C659        C  0.00499140  0.36724521  0.62456197    -0.02100
C660        C  0.00623163  0.34714540  0.64455775    -0.00400
C661        C  0.99911990  0.35340791  0.67157908    -0.04000
C662        C  0.99138393  0.37991366  0.67872134     0.03000
C663        C  0.99456781  0.41464399  0.61037602     0.09900
C664        C  0.01194169  0.36082052  0.59668870     0.35700
C665        C  0.98476839  0.38648425  0.70664140     0.39200
C666        C  0.01590471  0.43314629  0.60622717    -0.04400
C667        C  0.01375087  0.45326160  0.58631165     0.02800
C668        C  0.99055171  0.45429461  0.56964776    -0.04000
C669        C  0.96914448  0.43554013  0.57397837    -0.00200
C670        C  0.97109818  0.41599781  0.59451765    -0.02800
C671        C  0.04037289  0.43097694  0.62209487     0.36500
C672        C  0.94569261  0.43516839  0.55651824     0.40100
C673        C  0.03545586  0.47295286  0.58328199     0.39200
C674        C  0.94922774  0.39676188  0.59902164     0.36200
C675        C  0.98238646  0.42736103  0.66589006     0.36800
C676        C  0.01425958  0.31986813  0.63729070     0.40100
N677        N  0.05280968  0.48859832  0.58089450    -0.38000
N678        N  0.05991740  0.42906855  0.63465586    -0.39600
N679        N  0.92699207  0.43472077  0.54259616    -0.37300
N680        N  0.93188409  0.38133727  0.60264913    -0.39700
N681        N  0.01743714  0.35566338  0.57444963    -0.39500
N682        N  0.02070213  0.29809657  0.63164468    -0.37100
N683        N  0.97949588  0.39176572  0.72890272    -0.38200
N684        N  0.97618869  0.44921575  0.67148349    -0.39800
C685        C  0.90457253  0.26640359  0.71802204    -0.04700
C686        C  0.88905480  0.28393422  0.73468997     0.09400
C687        C  0.90259529  0.30422478  0.74960187    -0.02100
C688        C  0.93103096  0.30750678  0.74721555    -0.00400
C689        C  0.94637752  0.29089281  0.72952602    -0.04000
C690        C  0.93300990  0.26999194  0.71532312     0.03000
C691        C  0.85848820  0.28112520  0.73660642     0.09900
C692        C  0.88703314  0.32259472  0.76649902     0.35700
C693        C  0.94838007  0.25312743  0.69674158     0.39200
C694        C  0.84619910  0.27030000  0.76000392    -0.04400
C695        C  0.81766581  0.26738747  0.76195844     0.02800
C696        C  0.80041299  0.27510698  0.74031533    -0.04000
C697        C  0.81322901  0.28550004  0.71648128    -0.00200
C698        C  0.84182138  0.28909959  0.71506713    -0.02800
C699        C  0.86322454  0.26138676  0.78203201     0.36500
C700        C  0.79804149  0.29111671  0.69235466     0.40100
C701        C  0.80692522  0.25453466  0.78604723     0.39200
C702        C  0.85434115  0.30110789  0.69122786     0.36200
C703        C  0.89113192  0.24520557  0.70289187     0.36800
C704        C  0.94448615  0.32891658  0.76206424     0.40100
N705        N  0.80028741  0.24408968  0.80596790    -0.38000
N706        N  0.87680902  0.25433819  0.79958063    -0.39600
N707        N  0.78759808  0.29547120  0.67198764    -0.37300
N708        N  0.86446216  0.31073049  0.67231572    -0.39700
N709        N  0.87454545  0.33722811  0.77994916    -0.39500
N710        N  0.95528254  0.34597516  0.77389344    -0.37100
N711        N  0.96070044  0.23974652  0.68187995    -0.38200
N712        N  0.88044522  0.22838536  0.69063484    -0.39800
C713        C  0.98127071  0.59940416  0.58177145    -0.04700
C714        C  0.00288896  0.61720209  0.57585645     0.09400
C715        C  0.01962521  0.61272950  0.55306860    -0.02100
C716        C  0.01579118  0.58946861  0.53709678    -0.00400
C717        C  0.99556392  0.57037517  0.54433724    -0.04000
C718        C  0.97764429  0.57593192  0.56615639     0.03000
C719        C  0.00912670  0.63926485  0.59524296     0.09900
C720        C  0.04099120  0.63186521  0.54639358     0.35700
C721        C  0.95613065  0.55710092  0.57336163     0.39200
C722        C  0.02308606  0.63300073  0.61913633    -0.04400
C723        C  0.02480299  0.65218607  0.64003356     0.02800
C724        C  0.01317773  0.67802384  0.63671427    -0.04000
C725        C  0.00113322  0.68494240  0.61185706    -0.00200
C726        C  0.99880816  0.66542171  0.59124666    -0.02800
C727        C  0.03475293  0.60635229  0.62254537     0.36500
C728        C  0.99094970  0.71204816  0.60760854     0.40100
C729        C  0.03718018  0.64471411  0.66545714     0.39200
C730        C  0.98502252  0.67185511  0.56632520     0.36200
C731        C  0.96319682  0.60501373  0.60445723     0.36800
C732        C  0.03211394  0.58562307  0.51279468     0.40100
N733        N  0.04707636  0.63877964  0.68571124    -0.38000
N734        N  0.04404282  0.58509743  0.62517220    -0.39600
N735        N  0.98286688  0.73368709  0.60423414    -0.37300
N736        N  0.97402508  0.67693213  0.54641885    -0.39700
N737        N  0.05797601  0.64720055  0.54104544    -0.39500
N738        N  0.04494172  0.58261357  0.49328354    -0.37100
N739        N  0.93889835  0.54217591  0.57909824    -0.38200
N740        N  0.94883754  0.60960709  0.62253885    -0.39800
C741        C  0.91435307  0.75073351  0.69197012    -0.04700
C742        C  0.90000024  0.73359457  0.71006020     0.09400
C743        C  0.91461945  0.71462233  0.72546894    -0.02100
C744        C  0.94301816  0.71205511  0.72198924    -0.00400
C745        C  0.95712389  0.72844079  0.70312931    -0.04000
C746        C  0.94272419  0.74823250  0.68864090     0.03000
C747        C  0.86983869  0.73703643  0.71436865     0.09900
C748        C  0.90034618  0.69753778  0.74474213     0.35700
C749        C  0.95720090  0.76572434  0.66985487     0.39200
C750        C  0.85096807  0.71781394  0.70478576    -0.04400
C751        C  0.82270624  0.72104373  0.70977615     0.02800
C752        C  0.81275163  0.74427692  0.72362777    -0.04000
C753        C  0.83213716  0.76365401  0.73258215    -0.00200
C754        C  0.86020691  0.75974244  0.72851052    -0.02800
C755        C  0.86077922  0.69458229  0.68972395     0.36500
C756        C  0.82403594  0.78760440  0.74721816     0.40100
C757        C  0.80458607  0.69977513  0.70111477     0.39200
C758        C  0.87951264  0.77894842  0.73963583     0.36200
C759        C  0.89981633  0.77073457  0.67643963     0.36800
C760        C  0.95772770  0.69205800  0.73731534     0.40100
N761        N  0.79133064  0.68176736  0.69415669    -0.38000
N762        N  0.86866244  0.67606509  0.67770928    -0.39600
N763        N  0.81984838  0.80727773  0.75914362    -0.37300
N764        N  0.89492145  0.79418140  0.74849327    -0.39700
N765        N  0.88887985  0.68381614  0.75999944    -0.39500
N766        N  0.96955842  0.67619816  0.74960231    -0.37100
N767        N  0.96886878  0.77970304  0.65498579    -0.38200
N768        N  0.88821338  0.78678721  0.66417853    -0.39800
C769        C  0.31035460  0.73402325  0.90563356    -0.04700
C770        C  0.28729635  0.72426916  0.89193068     0.09400
C771        C  0.26661860  0.71106748  0.90698288    -0.02100
C772        C  0.26938532  0.70684806  0.93516610    -0.00400
C773        C  0.29291999  0.71561806  0.94867036    -0.04000
C774        C  0.31318108  0.72966048  0.93379826     0.03000
C775        C  0.28419224  0.72894730  0.86187327     0.09900
C776        C  0.24273868  0.70108063  0.89336000     0.35700
C777        C  0.33733446  0.73898096  0.94747205     0.39200
C778        C  0.29180273  0.70912640  0.84271353    -0.04400
C779        C  0.28774967  0.71330871  0.81452651     0.02800
C780        C  0.27544837  0.73745032  0.80504428    -0.04000
C781        C  0.26843947  0.75738180  0.82477357    -0.00200
C782        C  0.27322939  0.75331890  0.85264757    -0.02800
C783        C  0.30418625  0.68445485  0.85225992     0.36500
C784        C  0.25480912  0.78195647  0.81727080     0.40100
C785        C  0.29624334  0.69233510  0.79593738     0.39200
C786        C  0.26667132  0.77436293  0.87216691     0.36200
C787        C  0.33148532  0.74800025  0.89053400     0.36800
C788        C  0.24852975  0.69231667  0.95013950     0.40100
N789        N  0.30327445  0.67463389  0.78227224    -0.38000
N790        N  0.31418514  0.66495035  0.86020301    -0.39600
N791        N  0.24373125  0.80206708  0.81333780    -0.37300
N792        N  0.26167810  0.79115221  0.88775556    -0.39700
N793        N  0.22360684  0.69282330  0.88279343    -0.39500
N794        N  0.23194124  0.68074971  0.96218585    -0.37100
N795        N  0.35657542  0.74639023  0.95846762    -0.38200
N796        N  0.34830626  0.75913973  0.87840032    -0.39800
C797        C  0.16631121  0.72062815  0.70672493    -0.04700
C798        C  0.14727038  0.73080901  0.72560637     0.09400
C799        C  0.15659220  0.74286183  0.74950727    -0.02100
C800        C  0.18463307  0.74512467  0.75442352    -0.00400
C801        C  0.20417946  0.73671508  0.73476365    -0.04000
C802        C  0.19454328  0.72425579  0.71076729     0.03000
C803        C  0.11732110  0.72986165  0.72002559     0.09900
C804        C  0.13710284  0.75381372  0.76880949     0.35700
C805        C  0.21304474  0.71573499  0.68959455     0.39200
C806        C  0.10037888  0.71071884  0.73309646    -0.04400
C807        C  0.07229854  0.70989274  0.72761605     0.02800
C808        C  0.06100022  0.72786687  0.70866932    -0.04000
C809        C  0.07773955  0.74772924  0.69653580    -0.00200
C810        C  0.10567854  0.74881861  0.70230617    -0.02800
C811        C  0.11210164  0.69119407  0.75135649     0.36500
C812        C  0.06632265  0.76634280  0.67712675     0.40100
C813        C  0.05514932  0.68976053  0.74054976     0.39200
C814        C  0.12255335  0.76912476  0.68941898     0.36200
C815        C  0.15662645  0.70609065  0.68321040     0.36800
C816        C  0.19267469  0.75750934  0.77958482     0.40100
N817        N  0.04137502  0.67378983  0.75092515    -0.38000
N818        N  0.12158407  0.67560654  0.76584780    -0.39600
N819        N  0.05721633  0.78113927  0.66160092    -0.37300
N820        N  0.13574011  0.78543650  0.67889223    -0.39700
N821        N  0.12157098  0.76262744  0.78411586    -0.39500
N822        N  0.19722038  0.76765939  0.80013425    -0.37100
N823        N  0.22674606  0.70897721  0.67170483    -0.38200
N824        N  0.14870190  0.69422515  0.66468708    -0.39800
C825        C  0.40728781  0.98537127  0.66596054    -0.04700
C826        C  0.40619807  0.99656073  0.63984989     0.09400
C827        C  0.38409283  0.01270498  0.63223229    -0.02100
C828        C  0.36222345  0.01638425  0.65021470    -0.00400
C829        C  0.36262831  0.00411629  0.67598055    -0.04000
C830        C  0.38554516  0.98926232  0.68413033     0.03000
C831        C  0.42688540  0.98949536  0.61914336     0.09900
C832        C  0.38341538  0.02450016  0.60535382     0.35700
C833        C  0.38647044  0.97753575  0.71100411     0.39200
C834        C  0.42061097  0.96961066  0.59972134    -0.04400
C835        C  0.43686263  0.96694976  0.57643171     0.02800
C836        C  0.46032314  0.98313352  0.57338254    -0.04000
C837        C  0.46795344  0.00123623  0.59413131    -0.00200
C838        C  0.45088359  0.00481156  0.61679857    -0.02800
C839        C  0.39665676  0.95279532  0.60318946     0.36500
C840        C  0.49321520  0.01625177  0.59208228     0.40100
C841        C  0.42806627  0.94932014  0.55466239     0.39200
C842        C  0.45731394  0.02495952  0.63712332     0.36200
C843        C  0.43029596  0.96908112  0.67366716     0.36800
C844        C  0.33869932  0.03145650  0.64155531     0.40100
N845        N  0.42093531  0.93553613  0.53715534    -0.38000
N846        N  0.37761410  0.93933880  0.60604439    -0.39600
N847        N  0.51342820  0.02810825  0.59047069    -0.37300
N848        N  0.46234192  0.04107461  0.65333640    -0.39700
N849        N  0.38296345  0.03372979  0.58386220    -0.39500
N850        N  0.31996339  0.04349296  0.63464223    -0.37100
N851        N  0.38707578  0.96810893  0.73240412    -0.38200
N852        N  0.44866314  0.95608397  0.67979152    -0.39800
C853        C  0.29823166  0.91027318  0.74625525    -0.04700
C854        C  0.28412426  0.89577087  0.72612233     0.09400
C855        C  0.27195661  0.91013879  0.70477076    -0.02100
C856        C  0.27500297  0.93853394  0.70289941    -0.00400
C857        C  0.29037986  0.95282171  0.72223523    -0.04000
C858        C  0.30149922  0.93859966  0.74420867     0.03000
C859        C  0.28054289  0.86557724  0.72840726     0.09900
C860        C  0.25688683  0.89553587  0.68434198     0.35700
C861        C  0.31763743  0.95303977  0.76393692     0.39200
C862        C  0.25649649  0.85514611  0.73961457    -0.04400
C863        C  0.25318048  0.82704837  0.74335240     0.02800
C864        C  0.27351939  0.80836832  0.73496460    -0.04000
C865        C  0.29743312  0.81908265  0.72271346    -0.00200
C866        C  0.30102400  0.84750245  0.71994894    -0.02800
C867        C  0.23510870  0.87366056  0.74780673     0.36500
C868        C  0.31864821  0.80140076  0.71295893     0.40100
C869        C  0.22882904  0.81830634  0.75718054     0.39200
C870        C  0.32589623  0.85835710  0.70842715     0.36200
C871        C  0.30994629  0.89600059  0.76884113     0.36800
C872        C  0.26324406  0.95304358  0.68045998     0.40100
N873        N  0.20872514  0.81392125  0.76854245    -0.38000
N874        N  0.21804981  0.88840662  0.75417523    -0.39600
N875        N  0.33631054  0.78818208  0.70501640    -0.37300
N876        N  0.34571534  0.86722123  0.69933781    -0.39700
N877        N  0.24487259  0.88380298  0.66808612    -0.39500
N878        N  0.25384318  0.96470604  0.66261268    -0.37100
N879        N  0.33057998  0.96463597  0.77956010    -0.38200
N880        N  0.31948167  0.88489833  0.78696086    -0.39800
C881        C  0.24316773  0.20498549  0.60358713    -0.04700
C882        C  0.22434618  0.22193161  0.61697628     0.09400
C883        C  0.20515052  0.23614064  0.60148374    -0.02100
C884        C  0.20432910  0.23280995  0.57303492    -0.00400
C885        C  0.22237140  0.21489318  0.55984490    -0.04000
C886        C  0.24210407  0.20140172  0.57524032     0.03000
C887        C  0.22635237  0.22676690  0.64703865     0.09900
C888        C  0.18574539  0.25362203  0.61500273     0.35700
C889        C  0.26076756  0.18302068  0.56185288     0.39200
C890        C  0.23868835  0.25058103  0.65635006    -0.04400
C891        C  0.24106010  0.25565587  0.68433960     0.02800
C892        C  0.23238989  0.23629157  0.70391497    -0.04000
C893        C  0.22017545  0.21205332  0.69431931    -0.00200
C894        C  0.21683573  0.20762077  0.66609310    -0.02800
C895        C  0.25027962  0.26941086  0.63682114     0.36500
C896        C  0.21173878  0.19097068  0.71283975     0.40100
C897        C  0.25395333  0.28064737  0.69226130     0.39200
C898        C  0.20393332  0.18307703  0.65649834     0.36200
C899        C  0.26345451  0.19086240  0.61901134     0.36800
C900        C  0.18423923  0.24702749  0.55737643     0.40100
N901        N  0.26453346  0.30105031  0.69660403    -0.38000
N902        N  0.25972026  0.28417635  0.62118826    -0.39600
N903        N  0.20510439  0.17312818  0.72652527    -0.37300
N904        N  0.19365115  0.16349333  0.64881290    -0.39700
N905        N  0.17026069  0.26749830  0.62589191    -0.39500
N906        N  0.16832680  0.25845542  0.54479372    -0.37100
N907        N  0.27555376  0.16833255  0.55107685    -0.38200
N908        N  0.27968417  0.17938151  0.63110186    -0.39800
C909        C  0.09444048  0.30056311  0.74913887    -0.04700
C910        C  0.10832819  0.28259247  0.73162867     0.09400
C911        C  0.09333906  0.26773556  0.71237008    -0.02100
C912        C  0.06498156  0.27133747  0.71019768    -0.00400
C913        C  0.05118641  0.28980985  0.72726727    -0.04000
C914        C  0.06607549  0.30409038  0.74701333     0.03000
C915        C  0.13849718  0.27820170  0.73436657     0.09900
C916        C  0.10737640  0.24951170  0.69403053     0.35700
C917        C  0.05226021  0.32338939  0.76438038     0.39200
C918        C  0.14792178  0.25488729  0.74733806    -0.04400
C919        C  0.17600349  0.25001587  0.74962101     0.02800
C920        C  0.19559403  0.26936345  0.74069236    -0.04000
C921        C  0.18587299  0.29308456  0.72786107    -0.00200
C922        C  0.15760108  0.29705035  0.72420258    -0.02800
C923        C  0.12844525  0.23618178  0.75928996     0.36500
C924        C  0.20434597  0.31400211  0.71878606     0.40100
C925        C  0.18401725  0.22500281  0.76215117     0.39200
C926        C  0.14799706  0.32062606  0.70988449     0.36200
C927        C  0.10950804  0.31610023  0.76882696     0.36800
C928        C  0.05009453  0.25697128  0.68948049     0.40100
N929        N  0.18846077  0.20453887  0.77238152    -0.38000
N930        N  0.11290647  0.22144959  0.76901402    -0.39600
N931        N  0.21802107  0.33167939  0.71157556    -0.37300
N932        N  0.14023195  0.33934665  0.69836224    -0.39700
N933        N  0.11871054  0.23506483  0.67939817    -0.39500
N934        N  0.03817249  0.24555265  0.67294140    -0.37100
N935        N  0.04115920  0.33878760  0.77818078    -0.38200
N936        N  0.12151544  0.32872729  0.78439235    -0.39800
C937        C  0.26679071  0.09655373  0.71546504    -0.04700
C938        C  0.28291703  0.11283646  0.73253072     0.09400
C939        C  0.30357396  0.10058645  0.74777832    -0.02100
C940        C  0.30869276  0.07261061  0.74520474    -0.00400
C941        C  0.29355162  0.05659769  0.72701634    -0.04000
C942        C  0.27225002  0.06862426  0.71252750     0.03000
C943        C  0.27752593  0.14271406  0.73534315     0.09900
C944        C  0.31993719  0.11694738  0.76576746     0.35700
C945        C  0.25680563  0.05247282  0.69359607     0.39200
C946        C  0.26466438  0.15259039  0.75880522    -0.04400
C947        C  0.25972211  0.18050524  0.76197375     0.02800
C948        C  0.26732214  0.19942989  0.74154561    -0.04000
C949        C  0.28021058  0.18922343  0.71776424    -0.00200
C950        C  0.28536518  0.16110496  0.71487506    -0.02800
C951        C  0.25617159  0.13372332  0.77978245     0.36500
C952        C  0.28806168  0.20695741  0.69581836     0.40100
C953        C  0.24576562  0.18900817  0.78635305     0.39200
C954        C  0.29908132  0.15089438  0.69087028     0.36200
C955        C  0.24476173  0.10866713  0.70066854     0.36800
C956        C  0.33004380  0.06029165  0.76084294     0.40100
N957        N  0.23453342  0.19389658  0.80639498    -0.38000
N958        N  0.24952948  0.11867364  0.79650459    -0.39600
N959        N  0.29449952  0.21993965  0.67737232    -0.37300
N960        N  0.31002660  0.14248809  0.67183303    -0.39700
N961        N  0.33285124  0.13004136  0.78020255    -0.39500
N962        N  0.34703285  0.05040219  0.77332494    -0.37100
N963        N  0.24458163  0.03948342  0.67848519    -0.38200
N964        N  0.22719476  0.11836990  0.68885750    -0.39800
C965        C  0.44440825  0.39112714  0.00855838    -0.04700
C966        C  0.42195191  0.38990127  0.99131166     0.09400
C967        C  0.41973010  0.40804846  0.96953931    -0.02100
C968        C  0.43887887  0.42888562  0.96622842    -0.00400
C969        C  0.46068734  0.43118435  0.98445773    -0.04000
C970        C  0.46392410  0.41161486  0.00503169     0.03000
C971        C  0.39945339  0.37077719  0.99708864     0.09900
C972        C  0.39719959  0.40564535  0.95103261     0.35700
C973        C  0.48727056  0.41249865  0.02263829     0.39200
C974        C  0.37592773  0.38024887  0.01040604    -0.04400
C975        C  0.35337751  0.36310615  0.01351883     0.02800
C976        C  0.35467427  0.33621133  0.00401599    -0.04000
C977        C  0.37872849  0.32641359  0.99180910    -0.00200
C978        C  0.40099655  0.34383784  0.98802679    -0.02800
C979        C  0.37480034  0.40786896  0.02032247     0.36500
C980        C  0.38050898  0.29845155  0.98307895     0.40100
C981        C  0.32845591  0.37353807  0.02529564     0.39200
C982        C  0.42524070  0.33437727  0.97420437     0.36200
C983        C  0.44701833  0.37166478  0.03029119     0.36800
C984        C  0.43496737  0.44882843  0.94513080     0.40100
N985        N  0.30855233  0.38186029  0.03459798    -0.38000
N986        N  0.37397561  0.42989301  0.02821095    -0.39600
N987        N  0.38189546  0.27614672  0.97612673    -0.37300
N988        N  0.44460527  0.32695229  0.96313265    -0.39700
N989        N  0.37923746  0.40362387  0.93630179    -0.39500
N990        N  0.43176364  0.46473928  0.92834031    -0.37100
N991        N  0.50587284  0.41324543  0.03668027    -0.38200
N992        N  0.44911979  0.35607852  0.04756432    -0.39800
C993        C  0.29183564  0.26108320  0.91310076    -0.04700
C994        C  0.27690950  0.28038007  0.89846461     0.09400
C995        C  0.26431443  0.30185897  0.91262066    -0.02100
C996        C  0.26768229  0.30470532  0.94087891    -0.00400
C997        C  0.28379626  0.28622411  0.95526441    -0.04000
C998        C  0.29530466  0.26403309  0.94134025     0.03000
C999        C  0.27318016  0.27733275  0.86835815     0.09900
C1000       C  0.24860363  0.32154437  0.89787778     0.35700
C1001       C  0.31174887  0.24487643  0.95599468     0.39200
C1002       C  0.24918795  0.26582431  0.85856239    -0.04400
C1003       C  0.24522978  0.26268596  0.83046521     0.02800
C1004       C  0.26551896  0.27055872  0.81126561    -0.04000
C1005       C  0.28959003  0.28261116  0.82139090    -0.00200
C1006       C  0.29326708  0.28595997  0.84971315    -0.02800
C1007       C  0.22860321  0.25659691  0.87771831     0.36500
C1008       C  0.31103750  0.29136376  0.80325670     0.40100
C1009       C  0.22015823  0.25027490  0.82212006     0.39200
C1010       C  0.31783731  0.29832384  0.85985437     0.36200
C1011       C  0.30421999  0.23851531  0.89901008     0.36800
C1012       C  0.25555869  0.32736446  0.95510321     0.40100
N1013       N  0.19954738  0.24016659  0.81764132    -0.38000
N1014       N  0.21226295  0.24922636  0.89300037    -0.39600
N1015       N  0.32902666  0.29837935  0.78977689    -0.37300
N1016       N  0.33740141  0.30819952  0.86804462    -0.39700
N1017       N  0.23611239  0.33722659  0.88602360    -0.39500
N1018       N  0.24591118  0.34538264  0.96658301    -0.37100
N1019       N  0.32484574  0.22961983  0.96774737    -0.38200
N1020       N  0.31428679  0.22045991  0.88797730    -0.39800
C1021       C  0.00449652  0.63436262  0.38203374    -0.04700
C1022       C  0.99968515  0.60744866  0.37376182     0.09400
C1023       C  0.99676761  0.60128029  0.34604213    -0.02100
C1024       C  0.99767112  0.62212157  0.32674502    -0.00400
C1025       C  0.00126519  0.64910635  0.33518807    -0.04000
C1026       C  0.00499396  0.65522589  0.36276809     0.03000
C1027       C  0.99640675  0.58581508  0.39445661     0.09900
C1028       C  0.99252204  0.57354817  0.33745717     0.35700
C1029       C  0.00856979  0.68307504  0.37133635     0.39200
C1030       C  0.97261425  0.58470908  0.41043709    -0.04400
C1031       C  0.97000427  0.56544562  0.43124311     0.02800
C1032       C  0.99093364  0.54642285  0.43560134    -0.04000
C1033       C  0.01402214  0.54659083  0.41816699    -0.00200
C1034       C  0.01705159  0.56673068  0.39827432    -0.02800
C1035       C  0.95102761  0.60394931  0.40579702     0.36500
C1036       C  0.03467317  0.52591161  0.42021918     0.40100
C1037       C  0.94622539  0.56631616  0.44874627     0.39200
C1038       C  0.04177412  0.56832291  0.38215621     0.36200
C1039       C  0.00867082  0.64055012  0.41040713     0.36800
C1040       C  0.99477004  0.61590174  0.29821400     0.40100
N1041       N  0.92723100  0.56716692  0.46265462    -0.38000
N1042       N  0.93392978  0.61938985  0.40209200    -0.39600
N1043       N  0.05115553  0.50943326  0.42171906    -0.37300
N1044       N  0.06148925  0.56968877  0.36933655    -0.39700
N1045       N  0.98934346  0.55138652  0.33062516    -0.39500
N1046       N  0.99252825  0.61096635  0.27544465    -0.37100
N1047       N  0.01130138  0.70530661  0.37813296    -0.38200
N1048       N  0.01197489  0.64546537  0.43304357    -0.39800
C1049       C  0.72042939  0.69703409  0.15213259    -0.04700
C1050       C  0.73030444  0.71703316  0.13408165     0.09400
C1051       C  0.74217601  0.74046612  0.14486606    -0.02100
C1052       C  0.74349381  0.74442996  0.17314277    -0.00400
C1053       C  0.73470671  0.72412653  0.19171952    -0.04000
C1054       C  0.72280529  0.70036731  0.18069771     0.03000
C1055       C  0.72729845  0.71459828  0.10366517     0.09900
C1056       C  0.75333338  0.76072111  0.12653566     0.35700
C1057       C  0.71260213  0.67929911  0.19833657     0.39200
C1058       C  0.70832177  0.73090277  0.09004801    -0.04400
C1059       C  0.70653388  0.73020799  0.06146315     0.02800
C1060       C  0.72340059  0.71291457  0.04594934    -0.04000
C1061       C  0.74252158  0.69676290  0.05954928    -0.00200
C1062       C  0.74470453  0.69785575  0.08816049    -0.02800
C1063       C  0.69003086  0.74789420  0.10565089     0.36500
C1064       C  0.75887784  0.67782009  0.04412299     0.40100
C1065       C  0.68619153  0.74623118  0.04798248     0.39200
C1066       C  0.76456663  0.68137208  0.10173714     0.36200
C1067       C  0.70750965  0.67309988  0.14120348     0.36800
C1068       C  0.75396246  0.77008790  0.18225269     0.40100
N1069       N  0.66991044  0.75890122  0.03717593    -0.38000
N1070       N  0.67550790  0.76139527  0.11823071    -0.39600
N1071       N  0.77174559  0.66260599  0.03172674    -0.37300
N1072       N  0.78034840  0.66814363  0.11261250    -0.39700
N1073       N  0.76222841  0.77679456  0.11191989    -0.39500
N1074       N  0.76255699  0.79131244  0.18695091    -0.37100
N1075       N  0.70436702  0.66189092  0.21172725    -0.38200
N1076       N  0.69719446  0.65401537  0.13240214    -0.39800
C1077       C  0.84939650  0.73104925  0.24705980    -0.04700
C1078       C  0.85949611  0.72072828  0.27132633     0.09400
C1079       C  0.84110270  0.71300790  0.29199773    -0.02100
C1080       C  0.81268225  0.71585637  0.28850969    -0.00400
C1081       C  0.80221000  0.72621510  0.26389699    -0.04000
C1082       C  0.82123766  0.73362918  0.24325337     0.03000
C1083       C  0.88962512  0.71718685  0.27433968     0.09900
C1084       C  0.85159361  0.70186644  0.31688004     0.35700
C1085       C  0.81269716  0.74521740  0.21797720     0.39200
C1086       C  0.90538421  0.73661987  0.28819431    -0.04400
C1087       C  0.93363534  0.73284289  0.29116538     0.02800
C1088       C  0.94652283  0.71023997  0.27925950    -0.04000
C1089       C  0.93100977  0.69196705  0.26369783    -0.00200
C1090       C  0.90269593  0.69512368  0.26167139    -0.02800
C1091       C  0.89250901  0.76049382  0.29936580     0.36500
C1092       C  0.94425972  0.66945107  0.25025306     0.40100
C1093       C  0.94923457  0.75149786  0.30750962     0.39200
C1094       C  0.88683785  0.67536920  0.24689197     0.36200
C1095       C  0.86831984  0.73939060  0.22588228     0.36800
C1096       C  0.79491343  0.70853924  0.31078615     0.40100
N1097       N  0.96169460  0.76630337  0.32064969    -0.38000
N1098       N  0.88234868  0.77968686  0.30814014    -0.39600
N1099       N  0.95493018  0.65159654  0.23945059    -0.37300
N1100       N  0.87410098  0.65965169  0.23513980    -0.39700
N1101       N  0.86003982  0.69292743  0.33668296    -0.39500
N1102       N  0.78190707  0.70285461  0.32956643    -0.37100
N1103       N  0.80820547  0.75473620  0.19718634    -0.38200
N1104       N  0.88341511  0.74600070  0.20905464    -0.39800
C1105       C  0.59379189  0.98153696  0.33919539    -0.04700
C1106       C  0.59787370  0.98743251  0.36675031     0.09400
C1107       C  0.62369503  0.99510284  0.37605832    -0.02100
C1108       C  0.64579483  0.99553066  0.35802357    -0.00400
C1109       C  0.64184129  0.98912871  0.33053095    -0.04000
C1110       C  0.61579535  0.98268185  0.32096458     0.03000
C1111       C  0.57556892  0.98383161  0.38667064     0.09900
C1112       C  0.62749602  0.00216515  0.40430705     0.35700
C1113       C  0.61172653  0.97742613  0.29239507     0.39200
C1114       C  0.57493684  0.96039723  0.40272102    -0.04400
C1115       C  0.55701382  0.95868634  0.42490011     0.02800
C1116       C  0.53936508  0.98051781  0.43092013    -0.04000
C1117       C  0.53842388  0.00291705  0.41304959    -0.00200
C1118       C  0.55681495  0.00468061  0.39119214    -0.02800
C1119       C  0.59373372  0.93854202  0.39702989     0.36500
C1120       C  0.51862480  0.02422134  0.41691934     0.40100
C1121       C  0.55809240  0.93496334  0.44209603     0.39200
C1122       C  0.55719788  0.02834949  0.37388002     0.36200
C1123       C  0.56709664  0.97392503  0.32981324     0.36800
C1124       C  0.67272868  0.00167640  0.36789446     0.40100
N1125       N  0.55903217  0.91597032  0.45568502    -0.38000
N1126       N  0.60879732  0.92122094  0.39248109    -0.39600
N1127       N  0.50286737  0.04125400  0.41989066    -0.37300
N1128       N  0.55758506  0.04717388  0.36001501    -0.39700
N1129       N  0.63044403  0.00784434  0.42681918    -0.39500
N1130       N  0.69420983  0.00646631  0.37578158    -0.37100
N1131       N  0.60859322  0.97336604  0.26956662    -0.38200
N1132       N  0.54576519  0.96788150  0.32236999    -0.39800
C1133       C  0.72856611  0.89436876  0.29420484    -0.04700
C1134       C  0.71489444  0.87989815  0.27371266     0.09400
C1135       C  0.69921540  0.89424758  0.25483102    -0.02100
C1136       C  0.69620909  0.92257829  0.25719787    -0.00400
C1137       C  0.70906254  0.93690161  0.27827805    -0.04000
C1138       C  0.72586674  0.92274026  0.29628706     0.03000
C1139       C  0.71937191  0.84997421  0.27033611     0.09900
C1140       C  0.68593341  0.87977266  0.23311525     0.35700
C1141       C  0.73975262  0.93740262  0.31749789     0.39200
C1142       C  0.69943751  0.83077422  0.27792961    -0.04400
C1143       C  0.70399779  0.80268282  0.27396505     0.02800
C1144       C  0.72884353  0.79344348  0.26258534    -0.04000
C1145       C  0.74872287  0.81314268  0.25534369    -0.00200
C1146       C  0.74389322  0.84096352  0.25896632    -0.02800
C1147       C  0.67416020  0.84002926  0.28984733     0.36500
C1148       C  0.77425044  0.80551901  0.24305183     0.40100
C1149       C  0.68273687  0.78381479  0.28134749     0.39200
C1150       C  0.76415526  0.86064994  0.25036032     0.36200
C1151       C  0.74507272  0.87992323  0.31345364     0.36800
C1152       C  0.67925102  0.93702987  0.23837228     0.40100
N1153       N  0.66500871  0.76953632  0.28720101    -0.38000
N1154       N  0.65396346  0.84739336  0.29933777    -0.39600
N1155       N  0.79504196  0.80131097  0.23296715    -0.37300
N1156       N  0.78024316  0.87636393  0.24353259    -0.39700
N1157       N  0.67525109  0.86820602  0.21584390    -0.39500
N1158       N  0.66578468  0.94862540  0.22333287    -0.37100
N1159       N  0.75092887  0.94920404  0.33429222    -0.38200
N1160       N  0.75829191  0.86836422  0.32874118    -0.39800
C1161       C  0.64529149  0.23961227  0.24948363    -0.04700
C1162       C  0.63548950  0.21691905  0.23560242     0.09400
C1163       C  0.65400272  0.19740898  0.22592139    -0.02100
C1164       C  0.68230039  0.20078654  0.22990978    -0.00400
C1165       C  0.69243045  0.22396504  0.24357881    -0.04000
C1166       C  0.67332025  0.24331380  0.25315686     0.03000
C1167       C  0.60561192  0.21484845  0.23022506     0.09900
C1168       C  0.64379961  0.17396616  0.21157474     0.35700
C1169       C  0.68158806  0.26735276  0.26744175     0.39200
C1170       C  0.59393473  0.23163872  0.21044852    -0.04400
C1171       C  0.56563057  0.23166955  0.20669469     0.02800
C1172       C  0.54868465  0.21449461  0.22225959    -0.04000
C1173       C  0.56032213  0.19790149  0.24225590    -0.00200
C1174       C  0.58864223  0.19827653  0.24641022    -0.02800
C1175       C  0.61127644  0.24845845  0.19352016     0.36500
C1176       C  0.54322746  0.17945916  0.25762055     0.40100
C1177       C  0.55392579  0.24864595  0.18601842     0.39200
C1178       C  0.60041652  0.18129143  0.26701690     0.36200
C1179       C  0.62619004  0.25938556  0.26012130     0.36800
C1180       C  0.70046405  0.18016385  0.21986832     0.40100
N1181       N  0.54455304  0.26218056  0.16953392    -0.38000
N1182       N  0.62528594  0.26175949  0.18009354    -0.39600
N1183       N  0.52952747  0.16470065  0.26976390    -0.37300
N1184       N  0.60983596  0.16765942  0.28339466    -0.39700
N1185       N  0.63552942  0.15528065  0.20016212    -0.39500
N1186       N  0.71407953  0.16293365  0.21173002    -0.37100
N1187       N  0.68545776  0.28729765  0.27897180    -0.38200
N1188       N  0.61095703  0.27510547  0.26850706    -0.39800
C1189       C  0.73843367  0.29027726  0.10718865    -0.04700
C1190       C  0.71900800  0.27310878  0.11957179     0.09400
C1191       C  0.69903204  0.26084346  0.10323350    -0.02100
C1192       C  0.69803147  0.26639068  0.07506977    -0.00400
C1193       C  0.71719696  0.28399761  0.06282973    -0.04000
C1194       C  0.73763323  0.29553630  0.07905914     0.03000
C1195       C  0.72061041  0.26699216  0.14954926     0.09900
C1196       C  0.67906000  0.24307758  0.11562659     0.35700
C1197       C  0.75748532  0.31356098  0.06680589     0.39200
C1198       C  0.71074316  0.28531716  0.16921958    -0.04400
C1199       C  0.71487309  0.28069578  0.19732248     0.02800
C1200       C  0.72839568  0.25705814  0.20628450    -0.04000
C1201       C  0.73687334  0.23814338  0.18615371    -0.00200
C1202       C  0.73325977  0.24322657  0.15825075    -0.02800
C1203       C  0.69601724  0.30889647  0.16030089     0.36500
C1204       C  0.75052482  0.21349873  0.19339657     0.40100
C1205       C  0.70544000  0.30081005  0.21641889     0.39200
C1206       C  0.74320464  0.22408927  0.13818253     0.36200
C1207       C  0.75899434  0.30313542  0.12351785     0.36800
C1208       C  0.67664655  0.25480052  0.05881262     0.40100
N1209       N  0.69774836  0.31781681  0.23061096    -0.38000
N1210       N  0.68406566  0.32750298  0.15293343    -0.39600
N1211       N  0.76154688  0.19332630  0.19718065    -0.37300
N1212       N  0.75110336  0.20885615  0.12217580    -0.39700
N1213       N  0.66316099  0.22890666  0.12561482    -0.39500
N1214       N  0.65958212  0.24557931  0.04578945    -0.37100
N1215       N  0.77330391  0.32791946  0.05697069    -0.38200
N1216       N  0.77539755  0.31372270  0.13632774    -0.39800
C1217       C  0.70359630  0.08430244  0.25922219    -0.04700
C1218       C  0.71830875  0.09800961  0.27947474     0.09400
C1219       C  0.73064614  0.08290163  0.30017175    -0.02100
C1220       C  0.72738221  0.05451998  0.30123520    -0.00400
C1221       C  0.71168128  0.04093091  0.28165380    -0.04000
C1222       C  0.70016215  0.05593430  0.26041731     0.03000
C1223       C  0.72232410  0.12818319  0.27821055     0.09900
C1224       C  0.74602775  0.09677850  0.32086975     0.35700
C1225       C  0.68332190  0.04225676  0.24073388     0.39200
C1226       C  0.70260810  0.14620670  0.28839334    -0.04400
C1227       C  0.70682411  0.17463400  0.28710624     0.02800
C1228       C  0.73100732  0.18545608  0.27541053    -0.04000
C1229       C  0.75084029  0.16680581  0.26583301    -0.00200
C1230       C  0.74642445  0.13863149  0.26711457    -0.02800
C1231       C  0.67778958  0.13532320  0.30004760     0.36500
C1232       C  0.77570683  0.17586866  0.25314997     0.40100
C1233       C  0.68573773  0.19211347  0.29751034     0.39200
C1234       C  0.76655738  0.12009032  0.25621135     0.36200
C1235       C  0.69134954  0.09941146  0.23749378     0.36800
C1236       C  0.73894838  0.03937718  0.32336054     0.40100
N1237       N  0.66790957  0.20487059  0.30585143    -0.38000
N1238       N  0.65799809  0.12655730  0.30929777    -0.39600
N1239       N  0.79606409  0.18092510  0.24254666    -0.37300
N1240       N  0.78249383  0.10526598  0.24748897    -0.39700
N1241       N  0.75825433  0.10798943  0.33732666    -0.39500
N1242       N  0.74814482  0.02729367  0.34103250    -0.37100
N1243       N  0.66978167  0.03124889  0.22519527    -0.38200
N1244       N  0.68134998  0.11113875  0.22003606    -0.39800
C1245       C  0.24441517  0.65135644  0.23741319    -0.04700
C1246       C  0.22195724  0.64281307  0.22234279     0.09400
C1247       C  0.20439252  0.66265303  0.21193545    -0.02100
C1248       C  0.20861014  0.69063965  0.21752501    -0.00400
C1249       C  0.23137018  0.69944382  0.23261407    -0.04000
C1250       C  0.24939673  0.67921217  0.24204817     0.03000
C1251       C  0.21703508  0.61282646  0.21767844     0.09900
C1252       C  0.18209301  0.65415587  0.19505315     0.35700
C1253       C  0.27288706  0.68630284  0.25772970     0.39200
C1254       C  0.20014542  0.59777517  0.23546328    -0.04400
C1255       C  0.19562346  0.56972831  0.23114292     0.02800
C1256       C  0.20847653  0.55609357  0.20937346    -0.04000
C1257       C  0.22625000  0.57093600  0.19226184    -0.00200
C1258       C  0.23045562  0.59905709  0.19634529    -0.02800
C1259       C  0.18744577  0.61118056  0.25834495     0.36500
C1260       C  0.23981206  0.55725290  0.17000898     0.40100
C1261       C  0.17703680  0.55498452  0.24864392     0.39200
C1262       C  0.24844210  0.61401187  0.17840573     0.36200
C1263       C  0.26230759  0.63115873  0.24868150     0.36800
C1264       C  0.18882637  0.70986614  0.20827066     0.40100
N1265       N  0.16215787  0.54318702  0.26254981    -0.38000
N1266       N  0.17741206  0.62173802  0.27677209    -0.39600
N1267       N  0.25065531  0.54622673  0.15231397    -0.37300
N1268       N  0.26279294  0.62607672  0.16418226    -0.39700
N1269       N  0.16448487  0.64732722  0.18132977    -0.39500
N1270       N  0.17214800  0.72435343  0.20087213    -0.37100
N1271       N  0.29220951  0.68981668  0.27026281    -0.38200
N1272       N  0.27645342  0.61501997  0.25774806    -0.39800
C1273       C  0.25898638  0.70200979  0.09465257    -0.04700
C1274       C  0.27490720  0.72116619  0.10868528     0.09400
C1275       C  0.29460567  0.73624063  0.09414767    -0.02100
C1276       C  0.29928438  0.73127613  0.06624398    -0.00400
C1277       C  0.28426036  0.71122602  0.05249219    -0.04000
C1278       C  0.26380828  0.69689662  0.06679472     0.03000
C1279       C  0.27078275  0.72569430  0.13872559     0.09900
C1280       C  0.31040665  0.75659412  0.10809898     0.35700
C1281       C  0.24842161  0.67610134  0.05298796     0.39200
C1282       C  0.28858231  0.71437078  0.15776102    -0.04400
C1283       C  0.28544237  0.71983849  0.18590134     0.02800
C1284       C  0.26352399  0.73577031  0.19557458    -0.04000
C1285       C  0.24502536  0.74588529  0.17617001    -0.00200
C1286       C  0.24904664  0.74146490  0.14812624    -0.02800
C1287       C  0.30981065  0.69650332  0.14817730     0.36500
C1288       C  0.22149347  0.76117907  0.18434898     0.40100
C1289       C  0.30507887  0.70908111  0.20444511     0.39200
C1290       C  0.23077352  0.75341504  0.12869110     0.36200
C1291       C  0.23801017  0.68713381  0.10909815     0.36800
C1292       C  0.32057304  0.74583614  0.05194004     0.40100
N1293       N  0.32149201  0.70031848  0.21842800    -0.38000
N1294       N  0.32646698  0.68206458  0.14019688    -0.39600
N1295       N  0.20197253  0.77328731  0.18875926    -0.37300
N1296       N  0.21623161  0.76295902  0.11321693    -0.39700
N1297       N  0.32302416  0.77282142  0.11926511    -0.39500
N1298       N  0.33758873  0.75736117  0.04046358    -0.37100
N1299       N  0.23627456  0.65943730  0.04192426    -0.38200
N1300       N  0.22118721  0.67542354  0.12067465    -0.39800
C1301       C  0.09305911  0.71016532  0.25389321    -0.04700
C1302       C  0.10721651  0.72462435  0.27403494     0.09400
C1303       C  0.09271667  0.73570411  0.29615599    -0.02100
C1304       C  0.06443699  0.73187379  0.29844059    -0.00400
C1305       C  0.05050622  0.71593530  0.27929226    -0.04000
C1306       C  0.06484114  0.70559096  0.25666534     0.03000
C1307       C  0.13735114  0.72882799  0.27177979     0.09900
C1308       C  0.10719825  0.74987996  0.31730194     0.35700
C1309       C  0.05074920  0.68916991  0.23692590     0.39200
C1310       C  0.14763483  0.75345298  0.26198740    -0.04400
C1311       C  0.17583790  0.75765127  0.25949815     0.02800
C1312       C  0.19460524  0.73744359  0.26741057    -0.04000
C1313       C  0.18393242  0.71281386  0.27802937    -0.00200
C1314       C  0.15551399  0.70859956  0.27993751    -0.02800
C1315       C  0.12892233  0.77447818  0.25396643     0.36500
C1316       C  0.20144515  0.69133940  0.28696040     0.40100
C1317       C  0.18492073  0.78256456  0.24711475     0.39200
C1318       C  0.14469089  0.68336014  0.29042807     0.36200
C1319       C  0.10771433  0.69917378  0.23082446     0.36800
C1320       C  0.04966812  0.74342816  0.32116833     0.40100
N1321       N  0.19061057  0.80276876  0.23678446    -0.38000
N1322       N  0.11398217  0.79123562  0.24768911    -0.39600
N1323       N  0.21411989  0.67320463  0.29429465    -0.37300
N1324       N  0.13578594  0.66333093  0.29876305    -0.39700
N1325       N  0.11889395  0.76093905  0.33424071    -0.39500
N1326       N  0.03776790  0.75274591  0.33917605    -0.37100
N1327       N  0.03952489  0.67605435  0.22115837    -0.38200
N1328       N  0.11932914  0.69026272  0.21242571    -0.39800
C1329       C  0.40146761  0.96775790  0.42514351    -0.04700
C1330       C  0.38178793  0.98725949  0.43195770     0.09400
C1331       C  0.38387268  0.00193048  0.45631420    -0.02100
C1332       C  0.40691378  0.99887895  0.47260115    -0.00400
C1333       C  0.42801568  0.98141400  0.46428508    -0.04000
C1334       C  0.42467513  0.96493984  0.44114453     0.03000
C1335       C  0.36103568  0.99455608  0.41160496     0.09900
C1336       C  0.36260967  0.02055932  0.46419387     0.35700
C1337       C  0.44576536  0.94625057  0.43279486     0.39200
C1338       C  0.33503019  0.98274580  0.41239141    -0.04400
C1339       C  0.31698042  0.98712171  0.39093211     0.02800
C1340       C  0.32520150  0.00278950  0.36835136    -0.04000
C1341       C  0.35074532  0.01581996  0.36840743    -0.00200
C1342       C  0.36850299  0.01183151  0.39008277    -0.02800
C1343       C  0.32730150  0.96538054  0.43479938     0.36500
C1344       C  0.35942666  0.03225246  0.34558123     0.40100
C1345       C  0.28998926  0.97545080  0.39198687     0.39200
C1346       C  0.39503071  0.02462610  0.38978887     0.36200
C1347       C  0.39820062  0.95131699  0.40102930     0.36800
C1348       C  0.40879121  0.01340447  0.49805656     0.40100
N1349       N  0.26840458  0.96625206  0.39282184    -0.38000
N1350       N  0.32119588  0.95149429  0.45268976    -0.39600
N1351       N  0.36634217  0.04545465  0.32745362    -0.37300
N1352       N  0.41622099  0.03472058  0.38962436    -0.39700
N1353       N  0.34553888  0.03530258  0.47053068    -0.39500
N1354       N  0.41028932  0.02477690  0.51848100    -0.37100
N1355       N  0.46258525  0.93135118  0.42614001    -0.38200
N1356       N  0.39546371  0.93819294  0.38183245    -0.39800
C1357       C  0.28273325  0.84589535  0.29514741    -0.04700
C1358       C  0.27586127  0.86525601  0.27537607     0.09400
C1359       C  0.26615227  0.85593690  0.25040090    -0.02100
C1360       C  0.26162617  0.82795942  0.24575461    -0.00400
C1361       C  0.26768921  0.80807002  0.26569021    -0.04000
C1362       C  0.27923492  0.81762548  0.29027963     0.03000
C1363       C  0.27914528  0.89546972  0.28049118     0.09900
C1364       C  0.26034442  0.87549498  0.22937682     0.35700
C1365       C  0.28656994  0.79900683  0.31146956     0.39200
C1366       C  0.30491341  0.90792013  0.27819551    -0.04400
C1367       C  0.30817685  0.93594870  0.28353555     0.02800
C1368       C  0.28576640  0.95205966  0.29144738    -0.04000
C1369       C  0.25978046  0.94006633  0.29194158    -0.00200
C1370       C  0.25646001  0.91204986  0.28651384    -0.02800
C1371       C  0.32816962  0.89177292  0.27041844     0.36500
C1372       C  0.23645659  0.95645155  0.29902744     0.40100
C1373       C  0.33474282  0.94835634  0.28099157     0.39200
C1374       C  0.22951230  0.90048700  0.28771045     0.36200
C1375       C  0.29290580  0.85525590  0.32094923     0.36800
C1376       C  0.24861164  0.82063005  0.22077843     0.40100
N1377       N  0.35587595  0.95838636  0.27885224    -0.38000
N1378       N  0.34669246  0.87882305  0.26420377    -0.39600
N1379       N  0.21787046  0.96960957  0.30455022    -0.37300
N1380       N  0.20752719  0.89236881  0.28880399    -0.39700
N1381       N  0.25576294  0.89111372  0.21265410    -0.39500
N1382       N  0.23790510  0.81701593  0.20041044    -0.37100
N1383       N  0.29224716  0.78529013  0.32946059    -0.38200
N1384       N  0.30096827  0.86279649  0.34154319    -0.39800
C1385       C  0.23841879  0.25469169  0.35807048    -0.04700
C1386       C  0.22791243  0.23046137  0.36857877     0.09400
C1387       C  0.21803427  0.21070995  0.35050307    -0.02100
C1388       C  0.21922071  0.21491512  0.32203332    -0.00400
C1389       C  0.23039391  0.23915682  0.31112897    -0.04000
C1390       C  0.23911198  0.25930121  0.32983096     0.03000
C1391       C  0.22560078  0.22676274  0.39884473     0.09900
C1392       C  0.20676621  0.18586258  0.36141614     0.35700
C1393       C  0.24947208  0.28508207  0.32075438     0.39200
C1394       C  0.20160276  0.23445158  0.41259167    -0.04400
C1395       C  0.19893658  0.23064369  0.44085525     0.02800
C1396       C  0.22019079  0.21898567  0.45574542    -0.04000
C1397       C  0.24470393  0.21256812  0.44225408    -0.00200
C1398       C  0.24746353  0.21654671  0.41396778    -0.02800
C1399       C  0.17934039  0.24565431  0.39741648     0.36500
C1400       C  0.26656909  0.20046687  0.45733870     0.40100
C1401       C  0.17382432  0.23768442  0.45457919     0.39200
C1402       C  0.27257379  0.20932673  0.40041959     0.36200
C1403       C  0.24901524  0.27489242  0.37658940     0.36800
C1404       C  0.20870484  0.19404316  0.30450189     0.40100
N1405       N  0.15381350  0.24327117  0.46560111    -0.38000
N1406       N  0.16163186  0.25453491  0.38517914    -0.39600
N1407       N  0.28393152  0.19078295  0.46946764    -0.37300
N1408       N  0.29284819  0.20338487  0.39011534    -0.39700
N1409       N  0.19778570  0.16611084  0.37032067    -0.39500
N1410       N  0.20017261  0.17655091  0.29152718    -0.37100
N1411       N  0.25804652  0.30623158  0.31557082    -0.38200
N1412       N  0.25763849  0.29084575  0.39137098    -0.39800
C1413       C  0.34743701  0.24151202  0.25801289    -0.04700
C1414       C  0.35777660  0.22849014  0.23489885     0.09400
C1415       C  0.33967453  0.21925420  0.21494371    -0.02100
C1416       C  0.31137461  0.22365996  0.21776896    -0.00400
C1417       C  0.30074724  0.23691316  0.24106913    -0.04000
C1418       C  0.31933679  0.24565948  0.26113485     0.03000
C1419       C  0.38792435  0.22534509  0.23143886     0.09900
C1420       C  0.35033672  0.20503111  0.19148059     0.35700
C1421       C  0.31035128  0.26032821  0.28484303     0.39200
C1422       C  0.40198511  0.20552641  0.24623666    -0.04400
C1423       C  0.43027842  0.20251812  0.24278745     0.02800
C1424       C  0.44469273  0.21901124  0.22424181    -0.04000
C1425       C  0.43083645  0.23964669  0.21043700    -0.00200
C1426       C  0.40263231  0.24296211  0.21420547    -0.02800
C1427       C  0.38712648  0.18765191  0.26433936     0.36500
C1428       C  0.44546322  0.25658510  0.19127123     0.40100
C1429       C  0.44447843  0.18157956  0.25734924     0.39200
C1430       C  0.38861139  0.26417212  0.19989086     0.36200
C1431       C  0.36600686  0.25122740  0.27852721     0.36800
C1432       C  0.29388038  0.21514960  0.19606285     0.40100
N1433       N  0.45590437  0.16493059  0.26896472    -0.38000
N1434       N  0.37517561  0.17345193  0.27877009    -0.39600
N1435       N  0.45715884  0.27002691  0.17593395    -0.37300
N1436       N  0.37748598  0.28110340  0.18840475    -0.39700
N1437       N  0.35892791  0.19360219  0.17284468    -0.39500
N1438       N  0.28102780  0.20834741  0.17781233    -0.37100
N1439       N  0.30526125  0.27215288  0.30441737    -0.38200
N1440       N  0.38078391  0.25889556  0.29489184    -0.39800
C1441       C  0.19897572  0.40944291  0.23611628    -0.04700
C1442       C  0.21835075  0.39475483  0.22081740     0.09400
C1443       C  0.23414459  0.40876389  0.20121241    -0.02100
C1444       C  0.23005379  0.43675469  0.19647866    -0.00400
C1445       C  0.21038692  0.45133612  0.21149819    -0.04000
C1446       C  0.19497353  0.43742857  0.23142976     0.03000
C1447       C  0.22271856  0.36479724  0.22603426     0.09900
C1448       C  0.25412709  0.39412947  0.18530681     0.35700
C1449       C  0.17397109  0.45174032  0.24627327     0.39200
C1450       C  0.20363880  0.34509406  0.21784531    -0.04400
C1451       C  0.20722839  0.31722282  0.22414237     0.02800
C1452       C  0.23069450  0.30827946  0.23797651    -0.04000
C1453       C  0.25008472  0.32838586  0.24528984    -0.00200
C1454       C  0.24586614  0.35616172  0.23984777    -0.02800
C1455       C  0.18026576  0.35362320  0.20258217     0.36500
C1456       C  0.27452737  0.32129923  0.25932676     0.40100
C1457       C  0.18618539  0.29839987  0.21650405     0.39200
C1458       C  0.26533985  0.37619643  0.24901858     0.36200
C1459       C  0.18270884  0.39555661  0.25640152     0.36800
C1460       C  0.24512025  0.45033880  0.17509951     0.40100
N1461       N  0.16838725  0.28453798  0.21022329    -0.38000
N1462       N  0.16168544  0.36049067  0.19032841    -0.39600
N1463       N  0.29456978  0.31770638  0.27060460    -0.37300
N1464       N  0.28083953  0.39217461  0.25629258    -0.39700
N1465       N  0.27014822  0.38242507  0.17272317    -0.39500
N1466       N  0.25698878  0.46122048  0.15795223    -0.37100
N1467       N  0.15716062  0.46318185  0.25803162    -0.38200
N1468       N  0.16963157  0.38436484  0.27244247    -0.39800
C1469       C  0.29333123  0.26325940  0.10113786    -0.04700
C1470       C  0.27809023  0.28240767  0.11602511     0.09400
C1471       C  0.26574592  0.30401456  0.10222269    -0.02100
C1472       C  0.26948215  0.30701480  0.07395906    -0.00400
C1473       C  0.28544668  0.28833397  0.05920341    -0.04000
C1474       C  0.29694472  0.26619684  0.07286801     0.03000
C1475       C  0.27353369  0.27887272  0.14599492     0.09900
C1476       C  0.24967362  0.32347586  0.11731985     0.35700
C1477       C  0.31339727  0.24699708  0.05785090     0.39200
C1478       C  0.29289480  0.28761349  0.16493837    -0.04400
C1479       C  0.28844120  0.28374051  0.19313509     0.02800
C1480       C  0.26423682  0.27120967  0.20276739    -0.04000
C1481       C  0.24486663  0.26283011  0.18328708    -0.00200
C1482       C  0.24958406  0.26651614  0.15532012    -0.02800
C1483       C  0.31749600  0.30061471  0.15521073     0.36500
C1484       C  0.22014630  0.24917302  0.19124559     0.40100
C1485       C  0.30926518  0.29234555  0.21164222     0.39200
C1486       C  0.22988501  0.25696411  0.13580932     0.36200
C1487       C  0.30579321  0.24081199  0.11501485     0.36800
C1488       C  0.25764969  0.32985154  0.06012914     0.40100
N1489       N  0.32678464  0.29926324  0.22543005    -0.38000
N1490       N  0.33706197  0.31100324  0.14728279    -0.39600
N1491       N  0.19991720  0.23806792  0.19551152    -0.37300
N1492       N  0.21426867  0.24932246  0.12022955    -0.39700
N1493       N  0.23685606  0.33890360  0.12950145    -0.39500
N1494       N  0.24818601  0.34806230  0.04908230    -0.37100
N1495       N  0.32649774  0.23176368  0.04572924    -0.38200
N1496       N  0.31592416  0.22292278  0.12597763    -0.39800
C1497       C  0.29494696  0.09853786  0.27633914    -0.04700
C1498       C  0.27268507  0.11275960  0.28752292     0.09400
C1499       C  0.25308668  0.09827619  0.30281553    -0.02100
C1500       C  0.25640269  0.07028555  0.30795837    -0.00400
C1501       C  0.27909420  0.05621935  0.29745015    -0.04000
C1502       C  0.29815954  0.07050795  0.28131717     0.03000
C1503       C  0.26962903  0.14284159  0.28261575     0.09900
C1504       C  0.22960519  0.11225651  0.31359553     0.35700
C1505       C  0.32185279  0.05655557  0.27092080     0.39200
C1506       C  0.25733573  0.15206132  0.25887525    -0.04400
C1507       C  0.25495697  0.18009768  0.25363959     0.02800
C1508       C  0.26336725  0.19988647  0.27286736    -0.04000
C1509       C  0.27624436  0.19033169  0.29660391    -0.00200
C1510       C  0.27953285  0.16211695  0.30120677    -0.02800
C1511       C  0.24660610  0.13241861  0.23986192     0.36500
C1512       C  0.28640674  0.20904013  0.31655988     0.40100
C1513       C  0.24340085  0.18783450  0.22811508     0.39200
C1514       C  0.29332123  0.15273390  0.32515172     0.36200
C1515       C  0.31492415  0.11299628  0.26017645     0.36800
C1516       C  0.23692678  0.05607285  0.32494776     0.40100
N1517       N  0.23397053  0.19200114  0.20723673    -0.38000
N1518       N  0.23789032  0.11677204  0.22481104    -0.39600
N1519       N  0.29475785  0.22305998  0.33328803    -0.37300
N1520       N  0.30443302  0.14512769  0.34415821    -0.39700
N1521       N  0.21073022  0.12318359  0.32224994    -0.39500
N1522       N  0.22146001  0.04472792  0.33859320    -0.37100
N1523       N  0.34077174  0.04533564  0.26274690    -0.38200
N1524       N  0.33080847  0.12463326  0.24727985    -0.39800
C1525       C  0.00117263  0.37499094  0.38121203    -0.04700
C1526       C  0.98888533  0.36599462  0.40549973     0.09400
C1527       C  0.97988176  0.33906863  0.40805979    -0.02100
C1528       C  0.98288639  0.32114927  0.38610286    -0.00400
C1529       C  0.99435625  0.33042475  0.36148785    -0.04000
C1530       C  0.00362982  0.35731786  0.35910989     0.03000
C1531       C  0.98449038  0.38573134  0.42769594     0.09900
C1532       C  0.96691762  0.33012813  0.43296783     0.35700
C1533       C  0.01455002  0.36714852  0.33354501     0.39200
C1534       C  0.96338360  0.40463146  0.42554617    -0.04400
C1535       C  0.96305396  0.42755817  0.44234955     0.02800
C1536       C  0.98356289  0.43115142  0.46183126    -0.04000
C1537       C  0.00264984  0.41039378  0.46611831    -0.00200
C1538       C  0.00345127  0.38794523  0.44865029    -0.02800
C1539       C  0.94282083  0.40105304  0.40504978     0.36500
C1540       C  0.02115809  0.41188883  0.48870534     0.40100
C1541       C  0.94252900  0.44803715  0.43834963     0.39200
C1542       C  0.02440878  0.36771325  0.45143782     0.36200
C1543       C  0.01062886  0.40272641  0.37881571     0.36800
C1544       C  0.97412257  0.29323781  0.38872407     0.40100
N1545       N  0.92612715  0.46432754  0.43513900    -0.38000
N1546       N  0.92645341  0.39811242  0.38870381    -0.39600
N1547       N  0.03571369  0.41296867  0.50688517    -0.37300
N1548       N  0.04111577  0.35155047  0.45359605    -0.39700
N1549       N  0.95649599  0.32303754  0.45282421    -0.39500
N1550       N  0.96717702  0.27095488  0.39073409    -0.37100
N1551       N  0.02315528  0.37495176  0.31311584    -0.38200
N1552       N  0.01804277  0.42487624  0.37700702    -0.39800
C1553       C  0.89928076  0.29847618  0.27647425    -0.04700
C1554       C  0.88712833  0.27394984  0.28482247     0.09400
C1555       C  0.90357386  0.25329176  0.29546573    -0.02100
C1556       C  0.93177496  0.25736814  0.29836805    -0.00400
C1557       C  0.94382544  0.28219808  0.29082755    -0.04000
C1558       C  0.92747347  0.30256738  0.27941853     0.03000
C1559       C  0.85716891  0.26937727  0.28131790     0.09900
C1560       C  0.89130605  0.22823365  0.30462962     0.35700
C1561       C  0.93959601  0.32824146  0.27178936     0.39200
C1562       C  0.84771712  0.25757069  0.25736811    -0.04400
C1563       C  0.81988274  0.25181947  0.25419865     0.02800
C1564       C  0.80056421  0.25824941  0.27484510    -0.04000
C1565       C  0.81027932  0.27098282  0.29868668    -0.00200
C1566       C  0.83836537  0.27650775  0.30177030    -0.02800
C1567       C  0.86693015  0.25131649  0.23578247     0.36500
C1568       C  0.79196339  0.27831824  0.32043101     0.40100
C1569       C  0.81199590  0.23809640  0.22968940     0.39200
C1570       C  0.84813020  0.28995347  0.32588449     0.36200
C1571       C  0.88252309  0.31987752  0.26580799     0.36800
C1572       C  0.94821397  0.23660789  0.31067076     0.40100
N1573       N  0.80775001  0.22706388  0.20953179    -0.38000
N1574       N  0.88226042  0.24649129  0.21857811    -0.39600
N1575       N  0.77828551  0.28434176  0.33859251    -0.37300
N1576       N  0.85619600  0.30088477  0.34490872    -0.39700
N1577       N  0.88179297  0.20821525  0.31228343    -0.39500
N1578       N  0.96141014  0.22013071  0.32052304    -0.37100
N1579       N  0.94932745  0.34872262  0.26579462    -0.38200
N1580       N  0.86905780  0.33696990  0.25746613    -0.39800
C1581       C  0.15295444  0.29584800  0.28879216    -0.04700
C1582       C  0.13515031  0.27566170  0.27922936     0.09400
C1583       C  0.14594560  0.25277920  0.26639925    -0.02100
C1584       C  0.17422654  0.24937529  0.26408707    -0.00400
C1585       C  0.19261960  0.26980911  0.27281034    -0.04000
C1586       C  0.18143798  0.29344334  0.28487905     0.03000
C1587       C  0.10497777  0.27742782  0.28375830     0.09900
C1588       C  0.12763690  0.23264960  0.25521728     0.35700
C1589       C  0.19853302  0.31579739  0.29288194     0.39200
C1590       C  0.08851216  0.29245238  0.26608731    -0.04400
C1591       C  0.06019012  0.29412200  0.27077386     0.02800
C1592       C  0.04809241  0.28042687  0.29291462    -0.04000
C1593       C  0.06435451  0.26368412  0.30921057    -0.00200
C1594       C  0.09261735  0.26233757  0.30478046    -0.02800
C1595       C  0.10077797  0.30617260  0.24311209     0.36500
C1596       C  0.05194369  0.24827410  0.33103792     0.40100
C1597       C  0.04361826  0.31071125  0.25344317     0.39200
C1598       C  0.10914592  0.24558014  0.32204687     0.36200
C1599       C  0.14183077  0.31895611  0.30308998     0.36800
C1600       C  0.18355756  0.22454002  0.25194051     0.40100
N1601       N  0.03030472  0.32386348  0.23959034    -0.38000
N1602       N  0.11057068  0.31700322  0.22469335    -0.39600
N1603       N  0.04198309  0.23596766  0.34840371    -0.37300
N1604       N  0.12243856  0.23213658  0.33563661    -0.39700
N1605       N  0.11304454  0.21673593  0.24617704    -0.39500
N1606       N  0.18855207  0.20393455  0.24211790    -0.37100
N1607       N  0.21097418  0.33462879  0.29913655    -0.38200
N1608       N  0.13289445  0.33725196  0.31470038    -0.39800
C1609       C  0.41474190  0.79558604  0.75847256    -0.04700
C1610       C  0.39959068  0.77824249  0.77559945     0.09400
C1611       C  0.41340771  0.76128214  0.79382405    -0.02100
C1612       C  0.44186532  0.76294980  0.79609110    -0.00400
C1613       C  0.45681242  0.78171421  0.78037650    -0.04000
C1614       C  0.44321666  0.79735999  0.76089879     0.03000
C1615       C  0.36935444  0.77574591  0.77264884     0.09900
C1616       C  0.39822113  0.74239140  0.81058363     0.35700
C1617       C  0.45847992  0.81625183  0.74423939     0.39200
C1618       C  0.35875138  0.75308649  0.75933286    -0.04400
C1619       C  0.33054002  0.74940104  0.75729521     0.02800
C1620       C  0.31202653  0.76922531  0.76705843    -0.04000
C1621       C  0.32291328  0.79242345  0.78005763    -0.00200
C1622       C  0.35138624  0.79541051  0.78313563    -0.02800
C1623       C  0.37720150  0.73364786  0.74703230     0.36500
C1624       C  0.30532078  0.81355694  0.79006499     0.40100
C1625       C  0.32145726  0.72486609  0.74444886     0.39200
C1626       C  0.36231190  0.81879323  0.79704901     0.36200
C1627       C  0.40095248  0.81180538  0.73853329     0.36800
C1628       C  0.45583406  0.74613558  0.81543004     0.40100
N1629       N  0.31694633  0.70445544  0.73403399    -0.38000
N1630       N  0.39193366  0.71829268  0.73717339    -0.39600
N1631       N  0.29205804  0.83112888  0.79804485    -0.37300
N1632       N  0.37106456  0.83746029  0.80813097    -0.39700
N1633       N  0.38604608  0.72722250  0.82378283    -0.39500
N1634       N  0.46708159  0.73271651  0.83078453    -0.37100
N1635       N  0.47071422  0.83126993  0.73092438    -0.38200
N1636       N  0.38993274  0.82475808  0.72262905    -0.39800
C1637       C  0.65813813  0.77298118  0.74257307    -0.04700
C1638       C  0.64787337  0.78369040  0.76687445     0.09400
C1639       C  0.66614803  0.79182373  0.78713064    -0.02100
C1640       C  0.69450428  0.78792394  0.78367184    -0.00400
C1641       C  0.70505369  0.77629143  0.75945394    -0.04000
C1642       C  0.68629404  0.76953756  0.73873695     0.03000
C1643       C  0.61767112  0.78632638  0.77077325     0.09900
C1644       C  0.65564144  0.80472549  0.81140282     0.35700
C1645       C  0.69515673  0.75823710  0.71320356     0.39200
C1646       C  0.60259780  0.76557496  0.78367582    -0.04400
C1647       C  0.57421829  0.76796424  0.78715719     0.02800
C1648       C  0.56058436  0.79101497  0.77757329    -0.04000
C1649       C  0.57546064  0.81105511  0.76338042    -0.00200
C1650       C  0.60384210  0.80875917  0.76004362    -0.02800
C1651       C  0.61630130  0.74187970  0.79379255     0.36500
C1652       C  0.56148665  0.83443546  0.75281983     0.40100
C1653       C  0.55917325  0.74726601  0.80173141     0.39200
C1654       C  0.61894261  0.82969976  0.74590925     0.36200
C1655       C  0.63942469  0.76537258  0.72132611     0.36800
C1656       C  0.71224849  0.79576328  0.80541522     0.40100
N1657       N  0.54714485  0.73076567  0.81335607    -0.38000
N1658       N  0.62686545  0.72281339  0.80203375    -0.39600
N1659       N  0.55018848  0.85302295  0.74444458    -0.37300
N1660       N  0.63100403  0.84636901  0.73457046    -0.39700
N1661       N  0.64721245  0.81526800  0.83062884    -0.39500
N1662       N  0.72543985  0.80204905  0.82360093    -0.37100
N1663       N  0.70013082  0.74909739  0.69220201    -0.38200
N1664       N  0.62449874  0.75941118  0.70440864    -0.39800
C1665       C  0.51708481  0.86122298  0.88626397    -0.04700
C1666       C  0.49834134  0.88237729  0.88328932     0.09400
C1667       C  0.48221891  0.88393844  0.86004674    -0.02100
C1668       C  0.48547371  0.86485161  0.83924024    -0.00400
C1669       C  0.50370947  0.84308202  0.84242632    -0.04000
C1670       C  0.51928821  0.84117126  0.86619102     0.03000
C1671       C  0.49591301  0.90341812  0.90453538     0.09900
C1672       C  0.46213500  0.90512736  0.85771313     0.35700
C1673       C  0.53701725  0.81827089  0.87041076     0.39200
C1674       C  0.50816984  0.92889435  0.90048215    -0.04400
C1675       C  0.50642179  0.94867589  0.92081565     0.02800
C1676       C  0.49289868  0.94273137  0.94539808    -0.04000
C1677       C  0.48033714  0.91733813  0.94932087    -0.00200
C1678       C  0.48160526  0.89777361  0.92871954    -0.02800
C1679       C  0.52279239  0.93457465  0.87548315     0.36500
C1680       C  0.46719537  0.91088923  0.97494928     0.40100
C1681       C  0.51801647  0.97532278  0.91624565     0.39200
C1682       C  0.46841319  0.87175267  0.93239175     0.36200
C1683       C  0.53414074  0.86023888  0.90998071     0.36800
C1684       C  0.47045963  0.86808316  0.81434150     0.40100
N1685       N  0.52711451  0.99662496  0.91262202    -0.38000
N1686       N  0.53440882  0.93904213  0.85551008    -0.39600
N1687       N  0.45683730  0.90571693  0.99542872    -0.37300
N1688       N  0.45790733  0.85098584  0.93525941    -0.39700
N1689       N  0.44603506  0.92194463  0.85596392    -0.39500
N1690       N  0.45843893  0.87060961  0.79453253    -0.37100
N1691       N  0.55115820  0.80001549  0.87377843    -0.38200
N1692       N  0.54774902  0.85958272  0.92888904    -0.39800
C1693       C  0.20742273  0.40914393  0.76661256    -0.04700
C1694       C  0.22446346  0.39502673  0.78449114     0.09400
C1695       C  0.23910414  0.40979564  0.80408930    -0.02100
C1696       C  0.23630813  0.43820410  0.80609710    -0.00400
C1697       C  0.21838107  0.45216062  0.78898896    -0.04000
C1698       C  0.20412499  0.43746106  0.76909099     0.03000
C1699       C  0.22794183  0.36478390  0.78183169     0.09900
C1700       C  0.25631483  0.39556915  0.82286851     0.35700
C1701       C  0.18500895  0.45137758  0.75200807     0.39200
C1702       C  0.25171891  0.35440235  0.77004008    -0.04400
C1703       C  0.25490674  0.32628372  0.76625349     0.02800
C1704       C  0.23428840  0.30757069  0.77418719    -0.04000
C1705       C  0.21049885  0.31822118  0.78664712    -0.00200
C1706       C  0.20749520  0.34658046  0.79044242    -0.02800
C1707       C  0.27296351  0.37294776  0.76126550     0.36500
C1708       C  0.18866863  0.30065382  0.79544203     0.40100
C1709       C  0.27948521  0.31739512  0.75295915     0.39200
C1710       C  0.18334686  0.35724748  0.80347755     0.36200
C1711       C  0.19278518  0.39439129  0.74599488     0.36800
C1712       C  0.25095258  0.45305693  0.82665708     0.40100
N1713       N  0.29971004  0.31237857  0.74213826    -0.38000
N1714       N  0.28993622  0.38770225  0.75441299    -0.39600
N1715       N  0.17034071  0.28777239  0.80259302    -0.37300
N1716       N  0.16418518  0.36598161  0.81390007    -0.39700
N1717       N  0.26998840  0.38415302  0.83786121    -0.39500
N1718       N  0.26262003  0.46501766  0.84299848    -0.37100
N1719       N  0.16965160  0.46248802  0.73849175    -0.38200
N1720       N  0.18100812  0.38261165  0.72960922    -0.39800
C1721       C  0.20946688  0.59911001  0.76571725    -0.04700
C1722       C  0.22895418  0.61314549  0.78117161     0.09400
C1723       C  0.24512727  0.59844921  0.79940019    -0.02100
C1724       C  0.24089386  0.57034348  0.80311999    -0.00400
C1725       C  0.22113773  0.55641711  0.78792191    -0.04000
C1726       C  0.20589443  0.57089856  0.76877099     0.03000
C1727       C  0.23316734  0.64315370  0.77707995     0.09900
C1728       C  0.26590840  0.61232324  0.81460130     0.35700
C1729       C  0.18559361  0.55683149  0.75302255     0.39200
C1730       C  0.22360316  0.66227555  0.79612727    -0.04400
C1731       C  0.22773462  0.69043979  0.79189575     0.02800
C1732       C  0.24032365  0.70003482  0.76769622    -0.04000
C1733       C  0.24877278  0.68042181  0.74826163    -0.00200
C1734       C  0.24608265  0.65244299  0.75337780    -0.02800
C1735       C  0.20915808  0.65284823  0.82003834     0.36500
C1736       C  0.26127561  0.68834409  0.72292870     0.40100
C1737       C  0.21930665  0.70893171  0.81299284     0.39200
C1738       C  0.25728502  0.63291416  0.73436251     0.36200
C1739       C  0.19238343  0.61397679  0.74731575     0.36800
C1740       C  0.25588913  0.55593183  0.82359034     0.40100
N1741       N  0.21259839  0.72263817  0.83081288    -0.38000
N1742       N  0.19749306  0.64527960  0.83901842    -0.39600
N1743       N  0.27150202  0.69289795  0.70227323    -0.37300
N1744       N  0.26631282  0.61729772  0.71935395    -0.39700
N1745       N  0.28256444  0.62330092  0.82675889    -0.39500
N1746       N  0.26768491  0.54438887  0.84002079    -0.37100
N1747       N  0.16945606  0.54552586  0.74045057    -0.38200
N1748       N  0.17877359  0.62599434  0.73274265    -0.39800
C1749       C  0.11018355  0.52018692  0.85855617    -0.04700
C1750       C  0.11338340  0.50710341  0.88363999     0.09400
C1751       C  0.13802314  0.49429838  0.88981082    -0.02100
C1752       C  0.15944413  0.49455097  0.87091238    -0.00400
C1753       C  0.15581525  0.50648013  0.84528638    -0.04000
C1754       C  0.13109272  0.51918358  0.83906095     0.03000
C1755       C  0.09030541  0.50528077  0.90307002     0.09900
C1756       C  0.14116310  0.48052112  0.91549131     0.35700
C1757       C  0.12676918  0.53024615  0.81227516     0.39200
C1758       C  0.06860448  0.48752742  0.89761033    -0.04400
C1759       C  0.04768224  0.48413936  0.91678575     0.02800
C1760       C  0.04882453  0.49792399  0.94180185    -0.04000
C1761       C  0.07052181  0.51576272  0.94722924    -0.00200
C1762       C  0.09098216  0.51981668  0.92763379    -0.02800
C1763       C  0.06805393  0.47240971  0.87240690     0.36500
C1764       C  0.07257315  0.52886080  0.97344933     0.40100
C1765       C  0.02471140  0.46689668  0.91048464     0.39200
C1766       C  0.11299813  0.53858811  0.93283799     0.36200
C1767       C  0.08533223  0.53454323  0.85283701     0.36800
C1768       C  0.18532041  0.48282209  0.87797874     0.40100
N1769       N  0.00636079  0.45320905  0.90547776    -0.38000
N1770       N  0.06762048  0.46044102  0.85226869    -0.39600
N1771       N  0.07431816  0.53911494  0.99443643    -0.37300
N1772       N  0.13061902  0.55348823  0.93695275    -0.39700
N1773       N  0.14360010  0.46961908  0.93601426    -0.39500
N1774       N  0.20596508  0.47352008  0.88362170    -0.37100
N1775       N  0.12326869  0.53889436  0.79085782    -0.38200
N1776       N  0.06555385  0.54607716  0.84830942    -0.39800
C1777       C  0.65718718  0.21106469  0.79185968    -0.04700
C1778       C  0.63906128  0.23127586  0.78351581     0.09400
C1779       C  0.64964246  0.25471714  0.77124765    -0.02100
C1780       C  0.67798332  0.25845032  0.76815984    -0.00400
C1781       C  0.69668672  0.23811805  0.77615069    -0.04000
C1782       C  0.68549517  0.21369226  0.78695073     0.03000
C1783       C  0.60872455  0.22755961  0.78673406     0.09900
C1784       C  0.63105844  0.27457986  0.76049128     0.35700
C1785       C  0.70178157  0.18986133  0.79088447     0.39200
C1786       C  0.59397391  0.24317684  0.80580372    -0.04400
C1787       C  0.56573035  0.23926845  0.80931880     0.02800
C1788       C  0.55189056  0.21941496  0.79414726    -0.04000
C1789       C  0.56640772  0.20436792  0.77450848    -0.00200
C1790       C  0.59457051  0.20865032  0.77055613    -0.02800
C1791       C  0.60803349  0.26280874  0.82239294     0.36500
C1792       C  0.55248322  0.18361823  0.75917030     0.40100
C1793       C  0.55092965  0.25511309  0.82923368     0.39200
C1794       C  0.60906848  0.19326504  0.75007054     0.36200
C1795       C  0.64650859  0.18714589  0.80528188     0.36800
C1796       C  0.68706390  0.28256158  0.75421382     0.40100
N1797       N  0.53905074  0.26777766  0.84505770    -0.38000
N1798       N  0.61924901  0.27857991  0.83552265    -0.39600
N1799       N  0.54129018  0.16702337  0.74705309    -0.37300
N1800       N  0.62057582  0.18087978  0.73375582    -0.39700
N1801       N  0.61619478  0.29026452  0.75178138    -0.39500
N1802       N  0.69244543  0.30221231  0.74269358    -0.37100
N1803       N  0.71309034  0.16963831  0.79371397    -0.38200
N1804       N  0.63800664  0.16811831  0.81604947    -0.39800
C1805       C  0.35133182  0.24067781  0.75584562    -0.04700
C1806       C  0.36115095  0.22968016  0.77994212     0.09400
C1807       C  0.34253781  0.22180492  0.80035194    -0.02100
C1808       C  0.31419394  0.22496909  0.79669960    -0.00400
C1809       C  0.30404930  0.23675468  0.77263562    -0.04000
C1810       C  0.32323740  0.24422173  0.75217303     0.03000
C1811       C  0.39120742  0.22579519  0.78325666     0.09900
C1812       C  0.35277657  0.21046427  0.82524254     0.35700
C1813       C  0.31492559  0.25661330  0.72720737     0.39200
C1814       C  0.40695721  0.24511836  0.79723930    -0.04400
C1815       C  0.43505725  0.24102816  0.80076570     0.02800
C1816       C  0.44778393  0.21782300  0.78995772    -0.04000
C1817       C  0.43222115  0.19913018  0.77489958    -0.00200
C1818       C  0.40410668  0.20309438  0.77157961    -0.02800
C1819       C  0.39412581  0.26890032  0.80863160     0.36500
C1820       C  0.44497097  0.17502608  0.76400573     0.40100
C1821       C  0.45060781  0.25974790  0.81710561     0.39200
C1822       C  0.38818849  0.18338351  0.75680790     0.36200
C1823       C  0.37046931  0.24883263  0.73479956     0.36800
C1824       C  0.29600992  0.21600378  0.81799931     0.40100
N1825       N  0.46311301  0.27448988  0.83026991    -0.38000
N1826       N  0.38409102  0.28794829  0.81785028    -0.39600
N1827       N  0.45514018  0.15574561  0.75543426    -0.37300
N1828       N  0.37539119  0.16774037  0.74502183    -0.39700
N1829       N  0.36117001  0.20152360  0.84506559    -0.39500
N1830       N  0.28241360  0.20869824  0.83576554    -0.37100
N1831       N  0.31052460  0.26678884  0.70670276    -0.38200
N1832       N  0.38572955  0.25530970  0.71806665    -0.39800
C1833       C  0.48429554  0.14932213  0.90161669    -0.04700
C1834       C  0.49162635  0.12239314  0.89592707     0.09400
C1835       C  0.50091796  0.11503668  0.86985510    -0.02100
C1836       C  0.50312339  0.13467759  0.84948856    -0.00400
C1837       C  0.49634706  0.16173178  0.85529383    -0.04000
C1838       C  0.48674314  0.16905657  0.88128904     0.03000
C1839       C  0.49043731  0.10161221  0.91749993     0.09900
C1840       C  0.50812982  0.08719434  0.86405761     0.35700
C1841       C  0.47947282  0.19688063  0.88704992     0.39200
C1842       C  0.46914509  0.08263699  0.91800277    -0.04400
C1843       C  0.47004406  0.06056280  0.93583460     0.02800
C1844       C  0.49176592  0.05809539  0.95423472    -0.04000
C1845       C  0.51258483  0.07796727  0.95427526    -0.00200
C1846       C  0.51193594  0.09951216  0.93580231    -0.02800
C1847       C  0.44647676  0.08574484  0.89981721     0.36500
C1848       C  0.53483219  0.07657275  0.97316184     0.40100
C1849       C  0.44934193  0.03973311  0.93392232     0.39200
C1850       C  0.53362359  0.11943831  0.93528679     0.36200
C1851       C  0.47411868  0.15656654  0.92829676     0.36800
C1852       C  0.51163064  0.12696741  0.82235492     0.40100
N1853       N  0.43291131  0.02307473  0.93223031    -0.38000
N1854       N  0.42836072  0.08833263  0.88539787    -0.39600
N1855       N  0.55281743  0.07561644  0.98794239    -0.37300
N1856       N  0.55082651  0.13539881  0.93487078    -0.39700
N1857       N  0.51374695  0.06494228  0.85954136    -0.39500
N1858       N  0.51828914  0.12087000  0.80066904    -0.37100
N1859       N  0.47364510  0.21908394  0.89154514    -0.38200
N1860       N  0.46597528  0.16229894  0.94958692    -0.39800
C1861       C  0.79999576  0.60296834  0.74916579    -0.04700
C1862       C  0.78150708  0.61747836  0.76565196     0.09400
C1863       C  0.76461197  0.60314355  0.78398236    -0.02100
C1864       C  0.76654548  0.57472852  0.78614721    -0.00400
C1865       C  0.78566059  0.56030575  0.77034244    -0.04000
C1866       C  0.80236344  0.57458918  0.75181027     0.03000
C1867       C  0.77899843  0.64773854  0.76295679     0.09900
C1868       C  0.74579465  0.61780103  0.80126278     0.35700
C1869       C  0.82297830  0.56022084  0.73648145     0.39200
C1870       C  0.75636877  0.65868985  0.75006531    -0.04400
C1871       C  0.75341823  0.68694804  0.74768840     0.02800
C1872       C  0.77390513  0.70511101  0.75672986    -0.04000
C1873       C  0.79710356  0.69379681  0.76910627    -0.00200
C1874       C  0.79907449  0.66541434  0.77298193    -0.02800
C1875       C  0.73609150  0.64062692  0.73876909     0.36500
C1876       C  0.81963263  0.71060043  0.77719062     0.40100
C1877       C  0.72911747  0.69656180  0.73498335     0.39200
C1878       C  0.82163915  0.65425707  0.78774539     0.36200
C1879       C  0.81689772  0.61737722  0.72976954     0.36800
C1880       C  0.74976105  0.56033534  0.80566770     0.40100
N1881       N  0.70898447  0.70195805  0.72464292    -0.38000
N1882       N  0.71995661  0.62626447  0.72975639    -0.39600
N1883       N  0.83862040  0.72277439  0.78347779    -0.37300
N1884       N  0.83947976  0.64527178  0.79971452    -0.39700
N1885       N  0.73079718  0.62955804  0.81501167    -0.39500
N1886       N  0.73648263  0.54874124  0.82124926    -0.37100
N1887       N  0.83956594  0.54878677  0.72439682    -0.38200
N1888       N  0.83038982  0.62898140  0.71437606    -0.39800
C1889       C  0.78942978  0.40876797  0.75668481    -0.04700
C1890       C  0.76208916  0.40105434  0.76082939     0.09400
C1891       C  0.74237202  0.42165966  0.76389400    -0.02100
C1892       C  0.75045083  0.44908533  0.76694063    -0.00400
C1893       C  0.77808629  0.45640033  0.76458295    -0.04000
C1894       C  0.79693941  0.43628966  0.75686444     0.03000
C1895       C  0.75450853  0.37135186  0.76043884     0.09900
C1896       C  0.71382740  0.41473810  0.76359193     0.35700
C1897       C  0.82415477  0.44398903  0.74865961     0.39200
C1898       C  0.74237680  0.35829010  0.78296815    -0.04400
C1899       C  0.73732551  0.32997876  0.78231862     0.02800
C1900       C  0.74934561  0.31362481  0.76158081    -0.04000
C1901       C  0.75431617  0.32776198  0.73696880    -0.00200
C1902       C  0.75854717  0.35602743  0.73673661    -0.02800
C1903       C  0.73519842  0.37374680  0.80691638     0.36500
C1904       C  0.74526404  0.31632677  0.71181147     0.40100
C1905       C  0.71660098  0.31933405  0.80036876     0.39200
C1906       C  0.76515157  0.36964405  0.71145262     0.36200
C1907       C  0.81013306  0.38831516  0.75284885     0.36800
C1908       C  0.73046338  0.46956305  0.77327717     0.40100
N1909       N  0.69958615  0.31152101  0.81468786    -0.38000
N1910       N  0.72939162  0.38610853  0.82600605    -0.39600
N1911       N  0.73664015  0.31034916  0.69098386    -0.37300
N1912       N  0.77039820  0.38044973  0.69130519    -0.39700
N1913       N  0.69102070  0.40926636  0.76317185    -0.39500
N1914       N  0.71454394  0.48598760  0.77826845    -0.37100
N1915       N  0.84572211  0.44975846  0.74128506    -0.38200
N1916       N  0.82654726  0.37194597  0.74970028    -0.39800
C1917       C  0.84923754  0.50667339  0.87870080    -0.04700
C1918       C  0.87531952  0.49648166  0.87297212     0.09400
C1919       C  0.88251716  0.48884564  0.84637041    -0.02100
C1920       C  0.86385104  0.49191847  0.82539055    -0.00400
C1921       C  0.83750538  0.50138126  0.83117286    -0.04000
C1922       C  0.83015250  0.50868137  0.85787387     0.03000
C1923       C  0.89569959  0.49463774  0.89475937     0.09900
C1924       C  0.90931594  0.47818628  0.84057276     0.35700
C1925       C  0.80299196  0.51821203  0.86388081     0.39200
C1926       C  0.89394174  0.47371981  0.91402627    -0.04400
C1927       C  0.91340288  0.47191816  0.93449101     0.02800
C1928       C  0.93510599  0.49061490  0.93521942    -0.04000
C1929       C  0.93705343  0.51130016  0.91559785    -0.00200
C1930       C  0.91710730  0.51355602  0.89568508    -0.02800
C1931       C  0.87207328  0.45408541  0.91275771     0.36500
C1932       C  0.95997476  0.52979343  0.91532367     0.40100
C1933       C  0.91041987  0.45150713  0.95539201     0.39200
C1934       C  0.91851155  0.53537009  0.87610391     0.36200
C1935       C  0.84231825  0.51554979  0.90590223     0.36800
C1936       C  0.87231585  0.48673123  0.79769647     0.40100
N1937       N  0.90804984  0.43534256  0.97215941    -0.38000
N1938       N  0.85461150  0.43844783  0.91177289    -0.39600
N1939       N  0.97828872  0.54447758  0.91503411    -0.37300
N1940       N  0.91955653  0.55270409  0.86043221    -0.39700
N1941       N  0.93071422  0.46977158  0.83597670    -0.39500
N1942       N  0.87965765  0.48303130  0.77570013    -0.37100
N1943       N  0.78132408  0.52579306  0.86869484    -0.38200
N1944       N  0.83693078  0.52268386  0.92761376    -0.39800
C1945       C  0.75287305  0.39505504  0.21526752    -0.04700
C1946       C  0.76989044  0.38178450  0.23375577     0.09400
C1947       C  0.78854743  0.39720836  0.24894239    -0.02100
C1948       C  0.79152714  0.42524747  0.24419548    -0.00400
C1949       C  0.77559772  0.43820238  0.22456863    -0.04000
C1950       C  0.75564001  0.42313572  0.21077588     0.03000
C1951       C  0.76782750  0.35162944  0.23754746     0.09900
C1952       C  0.80526966  0.38403074  0.26888375     0.35700
C1953       C  0.73873788  0.43640924  0.19103562     0.39200
C1954       C  0.77829242  0.33359785  0.21790871    -0.04400
C1955       C  0.77501502  0.30522841  0.22096220     0.02800
C1956       C  0.76241645  0.29442993  0.24456657    -0.04000
C1957       C  0.75330483  0.31294189  0.26477171    -0.00200
C1958       C  0.75513335  0.34112758  0.26080999    -0.02800
C1959       C  0.79267583  0.34446190  0.19459000     0.36500
C1960       C  0.74120939  0.30371079  0.28983092     0.40100
C1961       C  0.78437847  0.28771717  0.19940371     0.39200
C1962       C  0.74320495  0.35953982  0.28050835     0.36200
C1963       C  0.73294579  0.37964508  0.20035186     0.36800
C1964       C  0.81210756  0.44056590  0.25834260     0.40100
N1965       N  0.79186337  0.27469960  0.18136532    -0.38000
N1966       N  0.80426022  0.35338990  0.17616635    -0.39600
N1967       N  0.73134823  0.29839321  0.31046884    -0.37300
N1968       N  0.73359354  0.37418507  0.29613501    -0.39700
N1969       N  0.81841845  0.37348874  0.28494644    -0.39500
N1970       N  0.82855884  0.45288345  0.26949919    -0.37100
N1971       N  0.72520141  0.44699934  0.17533086    -0.38200
N1972       N  0.71711676  0.36734903  0.18834012    -0.39800
C1973       C  0.75568078  0.58382608  0.20869853    -0.04700
C1974       C  0.77398233  0.59881560  0.22468240     0.09400
C1975       C  0.79411574  0.58495283  0.23926489    -0.02100
C1976       C  0.79678409  0.55659451  0.23675330    -0.00400
C1977       C  0.77912475  0.54177131  0.21992713    -0.04000
C1978       C  0.75816239  0.55544354  0.20647619     0.03000
C1979       C  0.77135493  0.62907095  0.22724480     0.09900
C1980       C  0.81255645  0.60006558  0.25629765     0.35700
C1981       C  0.73980735  0.54025611  0.18942582     0.39200
C1982       C  0.75934521  0.64015441  0.25057791    -0.04400
C1983       C  0.75746645  0.66843904  0.25384503     0.02800
C1984       C  0.76621257  0.68653490  0.23306420    -0.04000
C1985       C  0.77857964  0.67510743  0.20957868    -0.00200
C1986       C  0.78121227  0.64661043  0.20686900    -0.02800
C1987       C  0.74819589  0.62216808  0.27114284     0.36500
C1988       C  0.78868934  0.69205377  0.18787995     0.40100
C1989       C  0.74591598  0.67814903  0.27897282     0.39200
C1990       C  0.79397987  0.63513383  0.18293620     0.36200
C1991       C  0.73469979  0.59766003  0.19392324     0.36800
C1992       C  0.81839838  0.54274012  0.25063303     0.40100
N1993       N  0.73645308  0.68379050  0.29969597    -0.38000
N1994       N  0.73918998  0.60784793  0.28743290    -0.39600
N1995       N  0.79685574  0.70444982  0.16969017    -0.37300
N1996       N  0.80410910  0.62584834  0.16386671    -0.39700
N1997       N  0.82714017  0.61224485  0.26991705    -0.39500
N1998       N  0.83565949  0.53169663  0.26170375    -0.37100
N1999       N  0.72524745  0.52796220  0.17588887    -0.38200
N2000       N  0.71800436  0.60849708  0.18185128    -0.39800
C2001       C  0.87519550  0.49341955  0.13473208    -0.04700
C2002       C  0.86737705  0.47901394  0.11138570     0.09400
C2003       C  0.84122587  0.46765247  0.10977348    -0.02100
C2004       C  0.82273755  0.47098865  0.13134876    -0.00400
C2005       C  0.83071992  0.48488704  0.15501352    -0.04000
C2006       C  0.85702729  0.49608505  0.15665024     0.03000
C2007       C  0.88671870  0.47642298  0.08828471     0.09900
C2008       C  0.83347125  0.45240676  0.08594427     0.35700
C2009       C  0.86567062  0.50982224  0.18109406     0.39200
C2010       C  0.90937961  0.45931374  0.09043878    -0.04400
C2011       C  0.92972980  0.45982593  0.07032121     0.02800
C2012       C  0.92696013  0.47689610  0.04768264    -0.04000
C2013       C  0.90316834  0.49219533  0.04441284    -0.00200
C2014       C  0.88327121  0.49234679  0.06493950    -0.02800
C2015       C  0.91202317  0.44175963  0.11374034     0.36500
C2016       C  0.89904809  0.50750641  0.01976219     0.40100
C2017       C  0.95413839  0.44399409  0.07371203     0.39200
C2018       C  0.85963377  0.50944884  0.06240847     0.36200
C2019       C  0.90202311  0.50544212  0.13618755     0.36800
C2020       C  0.79532080  0.46063498  0.12891140     0.40100
N2021       N  0.97366391  0.43146457  0.07640138    -0.38000
N2022       N  0.91409971  0.42777328  0.13233921    -0.39600
N2023       N  0.89574318  0.51950265  0.99999395    -0.37300
N2024       N  0.84072634  0.52300738  0.06037781    -0.39700
N2025       N  0.82734548  0.44028694  0.06689668    -0.39500
N2026       N  0.77345651  0.45240566  0.12690581    -0.37100
N2027       N  0.87251659  0.52084138  0.20055477    -0.38200
N2028       N  0.92345538  0.51491265  0.13735072    -0.39800
C2029       C  0.64826767  0.73222215  0.22804350    -0.04700
C2030       C  0.63767459  0.75450229  0.21426369     0.09400
C2031       C  0.65523512  0.77584190  0.20668099    -0.02100
C2032       C  0.68318544  0.77514113  0.21332041    -0.00400
C2033       C  0.69405183  0.75273601  0.22744160    -0.04000
C2034       C  0.67597031  0.73139303  0.23478613     0.03000
C2035       C  0.60771320  0.75559492  0.20872536     0.09900
C2036       C  0.64440967  0.79849710  0.19177569     0.35700
C2037       C  0.68501194  0.70858164  0.25043224     0.39200
C2038       C  0.58999478  0.76866949  0.22712906    -0.04400
C2039       C  0.56180744  0.76945395  0.22226223     0.02800
C2040       C  0.55090380  0.75692693  0.19902434    -0.04000
C2041       C  0.56860109  0.74281165  0.18122123    -0.00200
C2042       C  0.59682052  0.74226118  0.18598788    -0.02800
C2043       C  0.60090883  0.78197251  0.25081695     0.36500
C2044       C  0.55778826  0.72957869  0.15741615     0.40100
C2045       C  0.54427844  0.78464656  0.24036894     0.39200
C2046       C  0.61483743  0.72857671  0.16711176     0.36200
C2047       C  0.63034521  0.71001638  0.23551585     0.36800
C2048       C  0.70002302  0.79803359  0.20609991     0.40100
N2049       N  0.53039841  0.79685585  0.25485996    -0.38000
N2050       N  0.60949395  0.79271523  0.26971310    -0.39600
N2051       N  0.54914341  0.71911320  0.13838416    -0.37300
N2052       N  0.62928795  0.71773715  0.15206443    -0.39700
N2053       N  0.63572887  0.81648532  0.17976385    -0.39500
N2054       N  0.71236351  0.81712621  0.20028143    -0.37100
N2055       N  0.69026382  0.68961372  0.26289195    -0.38200
N2056       N  0.61604909  0.69231677  0.24134498    -0.39800
C2057       C  0.40063600  0.74683055  0.19930688    -0.04700
C2058       C  0.39002393  0.76563249  0.21814961     0.09400
C2059       C  0.40814495  0.78208804  0.23291101    -0.02100
C2060       C  0.43637763  0.78079276  0.22777224    -0.00400
C2061       C  0.44683316  0.76303321  0.20784604    -0.04000
C2062       C  0.42885156  0.74548324  0.19426185     0.03000
C2063       C  0.35986827  0.76727452  0.22331701     0.09900
C2064       C  0.39758761  0.80111279  0.25269891     0.35700
C2065       C  0.43940054  0.72693986  0.17399949     0.39200
C2066       C  0.34873787  0.75615058  0.24710968    -0.04400
C2067       C  0.32062207  0.75758423  0.25240016     0.02800
C2068       C  0.30252839  0.76828165  0.23297764    -0.04000
C2069       C  0.31388075  0.77933545  0.20884065    -0.00200
C2070       C  0.34240563  0.77952695  0.20452888    -0.02800
C2071       C  0.36629064  0.74210075  0.26577429     0.36500
C2072       C  0.29678057  0.79000201  0.18786358     0.40100
C2073       C  0.31069299  0.74694313  0.27785682     0.39200
C2074       C  0.35395334  0.79233033  0.18065117     0.36200
C2075       C  0.38243960  0.72935942  0.18448053     0.36800
C2076       C  0.45459771  0.79881692  0.24196304     0.40100
N2077       N  0.30411016  0.73826094  0.29861452    -0.38000
N2078       N  0.38031494  0.73072560  0.28046460    -0.39600
N2079       N  0.28423470  0.79840702  0.17014080    -0.37300
N2080       N  0.36327949  0.80266650  0.16171700    -0.39700
N2081       N  0.38907410  0.81621356  0.26852055    -0.39500
N2082       N  0.46903224  0.81326468  0.25336059    -0.37100
N2083       N  0.44788536  0.71216138  0.15785933    -0.38200
N2084       N  0.36802346  0.71547644  0.17242078    -0.39800
C2085       C  0.51269799  0.86255679  0.12946369    -0.04700
C2086       C  0.49612484  0.86182035  0.10648612     0.09400
C2087       C  0.48038246  0.83875601  0.10067569    -0.02100
C2088       C  0.48141739  0.81615857  0.11783933    -0.00400
C2089       C  0.49784854  0.81694291  0.14108757    -0.04000
C2090       C  0.51328668  0.84034137  0.14698566     0.03000
C2091       C  0.49518342  0.88573326  0.08858937     0.09900
C2092       C  0.46284613  0.83856917  0.07729852     0.35700
C2093       C  0.52894092  0.84209095  0.17166104     0.39200
C2094       C  0.51158559  0.88663901  0.06513208    -0.04400
C2095       C  0.51155941  0.90977689  0.04871441     0.02800
C2096       C  0.49566101  0.93234196  0.05626182    -0.04000
C2097       C  0.47971644  0.93153867  0.08015092    -0.00200
C2098       C  0.47914339  0.90805759  0.09605289    -0.02800
C2099       C  0.52877417  0.86386554  0.05822353     0.36500
C2100       C  0.46495272  0.95524967  0.08915271     0.40100
C2101       C  0.52733740  0.90997044  0.02374488     0.39200
C2102       C  0.46238838  0.90691285  0.12035156     0.36200
C2103       C  0.52885926  0.88642674  0.13522393     0.36800
C2104       C  0.46561273  0.79218732  0.11158033     0.40100
N2105       N  0.53989297  0.91005957  0.00382656    -0.38000
N2106       N  0.54253721  0.84570374  0.05288601    -0.39600
N2107       N  0.45334713  0.97415689  0.09661905    -0.37300
N2108       N  0.44906254  0.90594848  0.13974144    -0.39700
N2109       N  0.44881266  0.83853576  0.05868857    -0.39500
N2110       N  0.45289866  0.77312943  0.10665331    -0.37100
N2111       N  0.54141912  0.84337626  0.19131957    -0.38200
N2112       N  0.54168169  0.90549462  0.13979781    -0.39800
C2113       C  0.78710155  0.78298447  0.33777031    -0.04700
C2114       C  0.76678936  0.77592932  0.35685096     0.09400
C2115       C  0.74417794  0.76115917  0.34799697    -0.02100
C2116       C  0.74147642  0.75400260  0.32038770    -0.00400
C2117       C  0.76187081  0.76068456  0.30080189    -0.04000
C2118       C  0.78498550  0.77514971  0.31012716     0.03000
C2119       C  0.76891332  0.78430085  0.38628299     0.09900
C2120       C  0.72362198  0.75301741  0.36763808     0.35700
C2121       C  0.80718620  0.78188855  0.29204823     0.39200
C2122       C  0.75340191  0.80609805  0.39646931    -0.04400
C2123       C  0.75636573  0.81486172  0.42360040     0.02800
C2124       C  0.77446704  0.80160720  0.44117992    -0.04000
C2125       C  0.78875289  0.77881224  0.43142465    -0.00200
C2126       C  0.78604587  0.77025620  0.40415147    -0.02800
C2127       C  0.73455715  0.81972956  0.37884377     0.36500
C2128       C  0.80721571  0.76487803  0.44915879     0.40100
C2129       C  0.74125275  0.83808597  0.43328070     0.39200
C2130       C  0.80117851  0.74714066  0.39430193     0.36200
C2131       C  0.81022223  0.79870646  0.34669070     0.36800
C2132       C  0.71755719  0.73893804  0.31289365     0.40100
N2133       N  0.72919111  0.85664596  0.44092915    -0.38000
N2134       N  0.71931951  0.83033631  0.36479456    -0.39600
N2135       N  0.82191950  0.75373335  0.46334844    -0.37300
N2136       N  0.81327052  0.72870989  0.38638856    -0.39700
N2137       N  0.70730083  0.74654418  0.38334438    -0.39500
N2138       N  0.69797861  0.72684010  0.30860673    -0.37100
N2139       N  0.82589878  0.78746069  0.27887381    -0.38200
N2140       N  0.82861688  0.81130503  0.35383547    -0.39800
C2141       C  0.76191592  0.81654231  0.59078460    -0.04700
C2142       C  0.78063896  0.79829955  0.60210358     0.09400
C2143       C  0.79944996  0.78528869  0.58465934    -0.02100
C2144       C  0.79953836  0.79046040  0.55644128    -0.00400
C2145       C  0.78098719  0.80888003  0.54518868    -0.04000
C2146       C  0.76236433  0.82209452  0.56263913     0.03000
C2147       C  0.77964089  0.79163085  0.63207287     0.09900
C2148       C  0.81928207  0.76706517  0.59591129     0.35700
C2149       C  0.74432729  0.84231118  0.55173547     0.39200
C2150       C  0.76906403  0.76660875  0.64066189    -0.04400
C2151       C  0.76734327  0.76011815  0.66852711     0.02800
C2152       C  0.77570040  0.77877349  0.68884653    -0.04000
C2153       C  0.78722172  0.80365612  0.67994660    -0.00200
C2154       C  0.78896477  0.81002641  0.65186500    -0.02800
C2155       C  0.75889618  0.74771831  0.62058339     0.36500
C2156       C  0.79729007  0.82311071  0.69925152     0.40100
C2157       C  0.75562255  0.73426424  0.67558217     0.39200
C2158       C  0.80011221  0.83580148  0.64323903     0.36200
C2159       C  0.74229414  0.82992647  0.60813839     0.36800
C2160       C  0.81975811  0.77790367  0.53909381     0.40100
N2161       N  0.74581132  0.71331533  0.67918666    -0.38000
N2162       N  0.75079147  0.73272053  0.60456313    -0.39600
N2163       N  0.80546477  0.83943383  0.71385884    -0.37300
N2164       N  0.80883760  0.85643687  0.63632362    -0.39700
N2165       N  0.83511295  0.75252831  0.60490128    -0.39500
N2166       N  0.83597904  0.76802384  0.52524299    -0.37100
N2167       N  0.73009723  0.85862249  0.54310927    -0.38200
N2168       N  0.72660891  0.84084467  0.62179534    -0.39800
C2169       C  0.83941503  0.91939124  0.46874120    -0.04700
C2170       C  0.86597760  0.91604955  0.47818617     0.09400
C2171       C  0.87350334  0.89196110  0.49122030    -0.02100
C2172       C  0.85451038  0.87102590  0.49463410    -0.00400
C2173       C  0.82781669  0.87418742  0.48509572    -0.04000
C2174       C  0.82027400  0.89847119  0.47222720     0.03000
C2175       C  0.88666388  0.93754289  0.47424671     0.09900
C2176       C  0.90101037  0.88868166  0.50080292     0.35700
C2177       C  0.79277751  0.90208287  0.46292178     0.39200
C2178       C  0.89122857  0.95646046  0.49499008    -0.04400
C2179       C  0.91451526  0.97288944  0.49416778     0.02800
C2180       C  0.93370752  0.96987139  0.47282859    -0.04000
C2181       C  0.92775276  0.95238897  0.45086439    -0.00200
C2182       C  0.90410631  0.93644443  0.45157690    -0.02800
C2183       C  0.87248678  0.95810348  0.51775652     0.36500
C2184       C  0.94653657  0.94927775  0.42827920     0.40100
C2185       C  0.91864742  0.99270108  0.51546375     0.39200
C2186       C  0.89828255  0.91783355  0.42962566     0.36200
C2187       C  0.83196444  0.94428279  0.45534911     0.36800
C2188       C  0.86274507  0.84598153  0.50733768     0.40100
N2189       N  0.92194768  0.00846427  0.53246436    -0.38000
N2190       N  0.85754077  0.95934456  0.53591556    -0.39600
N2191       N  0.96143860  0.94670169  0.41022070    -0.37300
N2192       N  0.89353611  0.90302047  0.41213707    -0.39700
N2193       N  0.92296786  0.88620455  0.50835312    -0.39500
N2194       N  0.86940339  0.82610475  0.51756576    -0.37100
N2195       N  0.77085535  0.90504091  0.45546467    -0.38200
N2196       N  0.82609537  0.96416429  0.44464704    -0.39800
C2197       C  0.79475202  0.21887086  0.66613873    -0.04700
C2198       C  0.77589061  0.22649212  0.64625781     0.09400
C2199       C  0.75136886  0.23844078  0.65462599    -0.02100
C2200       C  0.74587541  0.24310276  0.68238069    -0.00400
C2201       C  0.76541459  0.23717915  0.70244883    -0.04000
C2202       C  0.78986226  0.22457779  0.69395407     0.03000
C2203       C  0.78217779  0.22299838  0.61642000     0.09900
C2204       C  0.73196803  0.24677646  0.63443031     0.35700
C2205       C  0.81052873  0.21784188  0.71329506     0.39200
C2206       C  0.76850194  0.20326823  0.60080592    -0.04400
C2207       C  0.77470841  0.20000769  0.57289799     0.02800
C2208       C  0.79436026  0.21667193  0.56017352    -0.04000
C2209       C  0.80758765  0.23673554  0.57568101    -0.00200
C2210       C  0.80159113  0.23984291  0.60354785    -0.02800
C2211       C  0.74865104  0.18570376  0.61370110     0.36500
C2212       C  0.82836600  0.25351202  0.56311879     0.40100
C2213       C  0.76216033  0.17834554  0.55764189     0.39200
C2214       C  0.81614213  0.25995962  0.61910000     0.36200
C2215       C  0.81933259  0.20508031  0.65781573     0.36800
C2216       C  0.72015803  0.25511244  0.68969934     0.40100
N2217       N  0.75235002  0.16096212  0.54542722    -0.38000
N2218       N  0.73271421  0.17179827  0.62400253    -0.39600
N2219       N  0.84509235  0.26672104  0.55315295    -0.37300
N2220       N  0.82825835  0.27586735  0.63122020    -0.39700
N2221       N  0.71650978  0.25341919  0.61833684    -0.39500
N2222       N  0.69950753  0.26521739  0.69419043    -0.37100
N2223       N  0.82785487  0.21238206  0.72785895    -0.38200
N2224       N  0.83888134  0.19402051  0.65106667    -0.39800
C2225       C  0.77194966  0.19103086  0.41511979    -0.04700
C2226       C  0.78162948  0.21290829  0.39930825     0.09400
C2227       C  0.79566936  0.23419421  0.41226818    -0.02100
C2228       C  0.80060861  0.23328881  0.44040986    -0.00400
C2229       C  0.79164699  0.21107868  0.45606717    -0.04000
C2230       C  0.77686718  0.19017156  0.44333865     0.03000
C2231       C  0.77546088  0.21454142  0.36941305     0.09900
C2232       C  0.80583674  0.25681192  0.39660288     0.35700
C2233       C  0.76749823  0.16732855  0.45925864     0.39200
C2234       C  0.75076395  0.22554366  0.36106025    -0.04400
C2235       C  0.74509268  0.22868461  0.33322941     0.02800
C2236       C  0.76439933  0.22156817  0.31279825    -0.04000
C2237       C  0.78910737  0.20982805  0.32146150    -0.00200
C2238       C  0.79430713  0.20602252  0.34950143    -0.02800
C2239       C  0.73133440  0.23450312  0.38143817     0.36500
C2240       C  0.80981741  0.20210593  0.30211075     0.40100
C2241       C  0.71952889  0.24080558  0.32640136     0.39200
C2242       C  0.81916532  0.19325598  0.35803295     0.36200
C2243       C  0.75768634  0.16896452  0.40213040     0.36800
C2244       C  0.81590275  0.25481874  0.45320935     0.40100
N2245       N  0.69870619  0.25072052  0.32296616    -0.38000
N2246       N  0.71595748  0.24172335  0.39772041    -0.39600
N2247       N  0.82731992  0.19592354  0.28766209    -0.37300
N2248       N  0.83888587  0.18287362  0.36490056    -0.39700
N2249       N  0.81439762  0.27506075  0.38464158    -0.39500
N2250       N  0.82810229  0.27197021  0.46344630    -0.37100
N2251       N  0.76000212  0.14919107  0.47210085    -0.38200
N2252       N  0.74642720  0.15129068  0.39170550    -0.39800
C2253       C  0.91445433  0.16845922  0.48943661    -0.04700
C2254       C  0.91412213  0.14140546  0.49824583     0.09400
C2255       C  0.89180890  0.13129404  0.51323281    -0.02100
C2256       C  0.86888299  0.14749626  0.51747050    -0.00400
C2257       C  0.86837037  0.17398668  0.50695811    -0.04000
C2258       C  0.89153958  0.18480931  0.49381892     0.03000
C2259       C  0.93555525  0.12225763  0.48936052     0.09900
C2260       C  0.89201746  0.10369381  0.52316447     0.35700
C2261       C  0.89152627  0.21256413  0.48440215     0.39200
C2262       C  0.95942063  0.11948857  0.50441201    -0.04400
C2263       C  0.97665248  0.09737955  0.49946721     0.02800
C2264       C  0.96954347  0.07767527  0.47997707    -0.04000
C2265       C  0.94650406  0.08150127  0.46375631    -0.00200
C2266       C  0.92990521  0.10413623  0.46806744    -0.02800
C2267       C  0.96548613  0.13867210  0.52575462     0.36500
C2268       C  0.93830546  0.06092577  0.44449295     0.40100
C2269       C  0.00139258  0.09459786  0.51479495     0.39200
C2270       C  0.90601750  0.10804068  0.45166675     0.36200
C2271       C  0.93798231  0.17908155  0.47516238     0.36800
C2272       C  0.84523363  0.13631956  0.53121182     0.40100
N2273       N  0.02116145  0.09236590  0.52695278    -0.38000
N2274       N  0.97027231  0.15401793  0.54276886    -0.39600
N2275       N  0.93157667  0.04438255  0.42936791    -0.37300
N2276       N  0.88696015  0.11129254  0.43865709    -0.39700
N2277       N  0.89223272  0.08165607  0.53095814    -0.39500
N2278       N  0.82635058  0.12749205  0.54216983    -0.37100
N2279       N  0.89143375  0.23471150  0.47691442    -0.38200
N2280       N  0.95682677  0.18758282  0.46388578    -0.39800
C2281       C  0.21423406  0.79172314  0.66028405    -0.04700
C2282       C  0.23321028  0.78310964  0.64053277     0.09400
C2283       C  0.25700433  0.77045786  0.64922775    -0.02100
C2284       C  0.26125509  0.76528264  0.67709428    -0.00400
C2285       C  0.24160848  0.77244054  0.69721443    -0.04000
C2286       C  0.21800161  0.78604667  0.68826424     0.03000
C2287       C  0.22709846  0.78534465  0.61052202     0.09900
C2288       C  0.27717588  0.76244094  0.62921547     0.35700
C2289       C  0.19698186  0.79395066  0.70719147     0.39200
C2290       C  0.23845653  0.80614242  0.59425977    -0.04400
C2291       C  0.23121229  0.80871036  0.56655608     0.02800
C2292       C  0.21296062  0.79017581  0.55460509    -0.04000
C2293       C  0.20292562  0.76851020  0.57058120    -0.00200
C2294       C  0.20968890  0.76629967  0.59825666    -0.02800
C2295       C  0.25698654  0.82537084  0.60631145     0.36500
C2296       C  0.18468569  0.74883930  0.55866149     0.40100
C2297       C  0.24145833  0.83119949  0.55070941     0.39200
C2298       C  0.19797425  0.74469730  0.61436444     0.36200
C2299       C  0.19098028  0.80705769  0.65153035     0.36800
C2300       C  0.28576563  0.75133129  0.68431422     0.40100
N2301       N  0.24958688  0.84916675  0.53800331    -0.38000
N2302       N  0.27187287  0.84062230  0.61598356    -0.39600
N2303       N  0.17008692  0.73319350  0.54918079    -0.37300
N2304       N  0.18832328  0.72747628  0.62703301    -0.39700
N2305       N  0.29332365  0.75621145  0.61326548    -0.39500
N2306       N  0.30582818  0.74014061  0.68827007    -0.37100
N2307       N  0.17924509  0.80045129  0.72121061    -0.38200
N2308       N  0.17275830  0.81959242  0.64417160    -0.39800
C2309       C  0.22139460  0.80474290  0.34104972    -0.04700
C2310       C  0.22109316  0.78397858  0.36090608     0.09400
C2311       C  0.22417448  0.75714539  0.35146127    -0.02100
C2312       C  0.23193213  0.75193294  0.32425164    -0.00400
C2313       C  0.22991598  0.77215377  0.30392412    -0.04000
C2314       C  0.22217686  0.79832116  0.31293874     0.03000
C2315       C  0.21741113  0.78992691  0.39125722     0.09900
C2316       C  0.21929709  0.73455722  0.36959735     0.35700
C2317       C  0.21446022  0.81887365  0.29390895     0.39200
C2318       C  0.19615307  0.80654836  0.40090407    -0.04400
C2319       C  0.19414196  0.81319271  0.42867490     0.02800
C2320       C  0.20713051  0.79715227  0.44866511    -0.04000
C2321       C  0.22820080  0.77995286  0.43918349    -0.00200
C2322       C  0.23490745  0.77870440  0.41101009    -0.02800
C2323       C  0.17510650  0.81570823  0.38287246     0.36500
C2324       C  0.24269544  0.76281701  0.45772593     0.40100
C2325       C  0.17983383  0.83767561  0.43627289     0.39200
C2326       C  0.26003195  0.76605101  0.40248116     0.36200
C2327       C  0.22229746  0.83290842  0.34919843     0.36800
C2328       C  0.24492446  0.72642833  0.31858221     0.40100
N2329       N  0.16864735  0.85725240  0.44252217    -0.38000
N2330       N  0.15814735  0.82290245  0.36862337    -0.39600
N2331       N  0.25442255  0.74888989  0.47225401    -0.37300
N2332       N  0.28014273  0.75607715  0.39565763    -0.39700
N2333       N  0.21532212  0.71650438  0.38398139    -0.39500
N2334       N  0.25609956  0.70611937  0.31577314    -0.37100
N2335       N  0.20780515  0.83585131  0.27943428    -0.38200
N2336       N  0.22311246  0.85542933  0.35552962    -0.39800
C2337       C  0.11444719  0.87239770  0.51033824    -0.04700
C2338       C  0.09166716  0.86420254  0.49541817     0.09400
C2339       C  0.08820932  0.83676327  0.48852413    -0.02100
C2340       C  0.10849893  0.81786858  0.49489905    -0.00400
C2341       C  0.13269993  0.82658125  0.50732214    -0.04000
C2342       C  0.13514315  0.85384608  0.51587215     0.03000
C2343       C  0.07188456  0.88507226  0.48672671     0.09900
C2344       C  0.06415148  0.82822478  0.47423715     0.35700
C2345       C  0.15966414  0.86347032  0.52877016     0.39200
C2346       C  0.07833741  0.90212253  0.46468733    -0.04400
C2347       C  0.06347184  0.92598612  0.46049250     0.02800
C2348       C  0.04150177  0.93237898  0.47792121    -0.04000
C2349       C  0.03321874  0.91353028  0.49796940    -0.00200
C2350       C  0.04870577  0.89023175  0.50267696    -0.02800
C2351       C  0.10093810  0.89557744  0.44691163     0.36500
C2352       C  0.00885576  0.91816572  0.51400414     0.40100
C2353       C  0.07209168  0.94467037  0.43946455     0.39200
C2354       C  0.04155766  0.87217525  0.52473563     0.36200
C2355       C  0.11686006  0.90025486  0.51936890     0.36800
C2356       C  0.10470526  0.78953221  0.48839474     0.40100
N2357       N  0.07910221  0.95954042  0.42271816    -0.38000
N2358       N  0.11877609  0.89046506  0.43244386    -0.39600
N2359       N  0.98940756  0.92191469  0.52672748    -0.37300
N2360       N  0.03590239  0.85775614  0.54233862    -0.39700
N2361       N  0.04490286  0.82148942  0.46284512    -0.26300
N2362       N  0.10164047  0.76688610  0.48333393    -0.37100
N2363       N  0.17917088  0.87119825  0.53907633    -0.38200
N2364       N  0.11864229  0.92243847  0.52662670    -0.39800
loop_ 
_geom_bond_atom_site_label_1 
_geom_bond_atom_site_label_2 
_geom_bond_distance 
_geom_bond_site_symmetry_2 
_ccdc_geom_bond_type 
C1            C2   1.410       .  A
C1            C6   1.435       .  A
C1         C2320   1.539       .  S
C2            C3   1.394       .  A
C2            H7   1.081       .  S
C3            C4   1.393       .  A
C3         C2341   1.490       .  S
C4            C5   1.401       .  A
C4            H8   1.085       .  S
C5            C6   1.429       .  A
C5         C2292   1.509       .  S
C6            H9   1.079       .  S
C10          C11   1.420       .  A
C10          C15   1.400       .  A
C10        C2208   1.498       .  S
C11          C12   1.419       .  A
C11          H16   1.083       .  S
C12          C13   1.398       .  A
C12        C2229   1.496       .  S
C13          C14   1.394       .  A
C13          H17   1.085       .  S
C14          C15   1.394       .  A
C14        C2257   1.477       .  S
C15          H18   1.086       .  S
C19          C20   1.400       .  A
C19          C24   1.422       .  A
C19        C2124   1.503       .  S
C20          C21   1.396       .  A
C20          H25   1.088       .  S
C21          C22   1.396       .  A
C21        C2173   1.480       .  S
C22          C23   1.399       .  A
C22          H26   1.083       .  S
C23          C24   1.421       .  A
C23        C2145   1.501       .  S
C24          H27   1.082       .  S
C28          C29   1.396       .  A
C28          C33   1.419       .  A
C28        C2061   1.493       .  S
C29          C30   1.391       .  A
C29          H34   1.085       .  S
C30          C31   1.394       .  A
C30        C2089   1.477       .  S
C31          C32   1.399       .  A
C31          H35   1.086       .  S
C32          C33   1.422       .  A
C32        C2040   1.500       .  S
C33          H36   1.082       .  S
C37          C38   1.397       .  A
C37          C42   1.415       .  A
C37        C1949   1.490       .  S
C38          C39   1.394       .  A
C38          H43   1.084       .  S
C39          C40   1.395       .  A
C39        C2005   1.480       .  S
C40          C41   1.399       .  A
C40          H44   1.088       .  S
C41          C42   1.416       .  A
C41        C1977   1.491       .  S
C42          H45   1.082       .  S
C46          C47   1.403       .  A
C46          C51   1.421       .  A
C46        C1893   1.503       .  S
C47          C48   1.393       .  A
C47          H52   1.085       .  S
C48          C49   1.391       .  A
C48        C1921   1.475       .  S
C49          C50   1.398       .  A
C49          H53   1.086       .  S
C50          C51   1.420       .  A
C50        C1865   1.493       .  S
C51          H54   1.082       .  S
C55          C56   1.396       .  A
C55          C60   1.418       .  A
C55        C1816   1.493       .  S
C56          C57   1.390       .  A
C56          H61   1.085       .  S
C57          C58   1.395       .  A
C57        C1837   1.472       .  S
C58          C59   1.401       .  A
C58          H62   1.085       .  S
C59          C60   1.419       .  A
C59        C1788   1.496       .  S
C60          H63   1.083       .  S
C64          C65   1.397       .  A
C64          C69   1.420       .  A
C64        C1725   1.495       .  S
C65          C66   1.393       .  A
C65          H70   1.083       .  S
C66          C67   1.393       .  A
C66        C1753   1.475       .  S
C67          C68   1.397       .  A
C67          H71   1.088       .  S
C68          C69   1.420       .  A
C68        C1697   1.496       .  S
C69          H72   1.082       .  S
C73          C74   1.395       .  A
C73          C78   1.415       .  A
C73        C1613   1.489       .  S
C74          C75   1.392       .  A
C74          H79   1.085       .  S
C75          C76   1.396       .  A
C75        C1669   1.481       .  S
C76          C77   1.401       .  A
C76          H80   1.084       .  S
C77          C78   1.417       .  A
C77        C1648   1.493       .  S
C78          H81   1.084       .  S
C82          C83   1.418   1_455  A
C82          C87   1.401       .  A
C82        C1592   1.495       .  S
C83          C84   1.417       .  A
C83          H88   1.090       .  S
C84          C85   1.397       .  A
C84        C1557   1.493       .  S
C85          C86   1.391       .  A
C85          H89   1.083       .  S
C86          C87   1.392   1_655  A
C86        C1529   1.473       .  S
C87          H90   1.085       .  S
C91          C92   1.438       .  A
C91          C96   1.432       .  A
C91        C1452   1.534       .  S
C92          C93   1.437       .  A
C92        C1585   1.520       .  S
C93          C94   1.435       .  A
C93        C1389   1.526       .  S
C94          C95   1.428       .  A
C94        C1508   1.532       .  S
C95          C96   1.434       .  A
C95        C1417   1.516       .  S
C96        C1480   1.519       .  S
C97          C98   1.401       .  A
C97         C102   1.422       .  A
C97        C1501   1.503       .  S
C98          C99   1.398       .  A
C98         H103   1.084       .  S
C99         C100   1.398   1_545  A
C99        C1340   1.486       .  S
C100        C101   1.401       .  A
C100        H104   1.086       .  S
C101        C102   1.422   1_565  A
C101       C1368   1.508       .  S
C102        H105   1.083       .  S
C106        C107   1.445       .  A
C106        C111   1.448       .  A
C106       C2313   1.539       .  S
C107        C108   1.434       .  A
C107       C1312   1.520       .  S
C108        C109   1.423       .  A
C108       C1249   1.530       .  S
C109        C110   1.433       .  A
C109       C1284   1.523       .  S
C110        C111   1.439       .  A
C110       C2068   1.518       .  S
C111       C1361   1.540       .  S
C112        C113   1.435       .  A
C112        C117   1.428       .  A
C112       C1165   1.519       .  S
C113        C114   1.435       .  A
C113       C1228   1.522       .  S
C114        C115   1.436       .  A
C114       C2236   1.529       .  S
C115        C116   1.431       .  A
C115       C1564   1.523       .  S
C116        C117   1.431       .  A
C116       C1956   1.518       .  S
C117       C1200   1.528       .  S
C118        C119   1.395       .  A
C118        C123   1.418   1_545  A
C118       C1221   1.490       .  S
C119        C120   1.389   1_545  A
C119        H124   1.083       .  S
C120        C121   1.390       .  A
C120       C1109   1.468       .  S
C121        C122   1.397       .  A
C121        H125   1.088       .  S
C122        C123   1.419       .  A
C122       C1137   1.491       .  S
C123        H126   1.082       .  S
C127        C128   1.434       .  A
C127        C132   1.425       .  A
C127       C2033   1.521       .  S
C128        C129   1.433       .  A
C128       C1144   1.517       .  S
C129        C130   1.437       .  A
C129       C2117   1.532       .  S
C130        C131   1.435       .  A
C130       C1081   1.523       .  S
C131        C132   1.434       .  A
C131       C1984   1.523       .  S
C132       C1053   1.528       .  S
C133        C134   1.399       .  A
C133        C138   1.417   1_455  A
C133       C1305   1.491       .  S
C134        C135   1.391       .  A
C134        H139   1.084       .  S
C135        C136   1.392   1_455  A
C135       C1025   1.472       .  S
C136        C137   1.400       .  A
C136        H140   1.086       .  S
C137        C138   1.418       .  A
C137       C1088   1.494       .  S
C138        H141   1.083       .  S
C142        C143   1.417       .  A
C142        C147   1.399       .  A
C142       C1473   1.491       .  S
C143        C144   1.417   1_554  A
C143        H148   1.082       .  S
C144        C145   1.396       .  A
C144        C997   1.491       .  S
C145        C146   1.392   1_556  A
C145        H149   1.088       .  S
C146        C147   1.394       .  A
C146        C976   1.476       .  S
C147        H150   1.083       .  S
C151        C152   1.434       .  A
C151        C156   1.429       .  A
C151       C1809   1.524       .  S
C152        C153   1.431       .  A
C152       C1004   1.523       .  S
C153        C154   1.436       .  A
C153       C1704   1.525       .  S
C154        C155   1.434       .  A
C154        C920   1.525       .  S
C155        C156   1.434       .  A
C155        C892   1.521       .  S
C156        C948   1.522       .  S
C157        C158   1.418       .  A
C157        C162   1.400       .  A
C157        C941   1.494       .  S
C158        C159   1.416   1_545  A
C158        H163   1.082       .  S
C159        C160   1.395       .  A
C159        C857   1.491       .  S
C160        C161   1.393   1_565  A
C160        H164   1.086       .  S
C161        C162   1.394       .  A
C161        C829   1.476       .  S
C162        H165   1.086       .  S
C166        C167   1.430       .  A
C166        C171   1.435       .  A
C166        C864   1.523       .  S
C167        C168   1.437       .  A
C167       C2285   1.533       .  S
C168        C169   1.437       .  A
C168        C801   1.519       .  S
C169        C170   1.435       .  A
C169       C1732   1.524       .  S
C170        C171   1.430       .  A
C170        C780   1.530       .  S
C171       C1620   1.518       .  S
C172        C173   1.417       .  A
C172        C177   1.399       .  A
C172        C808   1.491       .  S
C173        C174   1.417   1_455  A
C173        H178   1.083       .  S
C174        C175   1.399       .  A
C174        C745   1.494       .  S
C175        C176   1.396   1_655  A
C175        H179   1.084       .  S
C176        C177   1.394       .  A
C176        C724   1.481       .  S
C177        H180   1.085       .  S
C181        C182   1.398       .  A
C181        C186   1.422   1_455  A
C181        C913   1.498       .  S
C182        C183   1.392   1_455  A
C182        H187   1.087       .  S
C183        C184   1.393       .  A
C183        C661   1.474       .  S
C184        C185   1.399       .  A
C184        H188   1.084       .  S
C185        C186   1.422       .  A
C185        C689   1.500       .  S
C186        H189   1.082       .  S
C190        C191   1.431       .  A
C190        C195   1.431       .  A
C190       C2201   1.520       .  S
C191        C192   1.437       .  A
C191        C696   1.530       .  S
C192        C193   1.439       .  A
C192       C1900   1.557       .  S
C193        C194   1.445       .  A
C193        C612   1.561       .  S
C194        C195   1.436       .  A
C194       C1781   1.530       .  S
C195        C633   1.517       .  S
C196        C197   1.402       .  A
C196        C201   1.414       .  A
C196        C640   1.494       .  S
C197        C198   1.401       .  A
C197        H202   1.084       .  S
C198        C199   1.397   1_545  A
C198        C549   1.487   1_545  S
C199        C200   1.398       .  A
C199        H203   1.085       .  S
C200        C201   1.411   1_565  A
C200        C577   1.489       .  S
C201        H204   1.083       .  S
C205        C206   1.435       .  A
C205        C210   1.434       .  A
C205       C2152   1.530       .  S
C206        C207   1.428       .  A
C206        C584   1.521       .  S
C207        C208   1.434       .  A
C207       C1641   1.523       .  S
C208        C209   1.432       .  A
C208        C521   1.530       .  S
C209        C210   1.438       .  A
C209       C1872   1.521       .  S
C210        C752   1.524       .  S
C211        C212   1.419       .  A
C211        C216   1.401       .  A
C211       C1277   1.498       .  S
C212        C213   1.418   1_554  A
C212        H217   1.082       .  S
C213        C214   1.398       .  A
C213        C773   1.498       .  S
C214        C215   1.397   1_556  A
C214        H218   1.085       .  S
C215        C216   1.398       .  A
C215        C493   1.484       .  S
C216        H219   1.085       .  S
C220        C221   1.402       .  A
C220        C225   1.423       .  A
C220       C1193   1.501       .  S
C221        C222   1.396       .  A
C221        H226   1.084       .  S
C222        C223   1.393   1_554  A
C222        C465   1.482       .  S
C223        C224   1.400       .  A
C223        H227   1.084       .  S
C224        C225   1.423   1_556  A
C224        C605   1.508       .  S
C225        H228   1.082       .  S
C229        C230   1.426   1_554  A
C229        C234   1.395       .  A
C229       C1060   1.500       .  S
C230        C231   1.426       .  A
C230        H235   1.082       .  S
C231        C232   1.399       .  A
C231        C528   1.504       .  S
C232        C233   1.392       .  A
C232        H236   1.084       .  S
C233        C234   1.388   1_556  A
C233        C437   1.470       .  S
C234        H237   1.087       .  S
C238        C239   1.398       .  A
C238        C243   1.417       .  A
C238       C1424   1.489       .  S
C239        C240   1.391       .  A
C239        H244   1.085       .  S
C240        C241   1.391       .  A
C240        C416   1.472       .  S
C241        C242   1.395       .  A
C241        H245   1.086       .  S
C242        C243   1.417       .  A
C242       C1172   1.490       .  S
C243        H246   1.083       .  S
C247        C248   1.399       .  A
C247        C252   1.421       .  A
C247       C1445   1.505       .  S
C248        C249   1.398       .  A
C248        H253   1.067       .  S
C249        C250   1.398       .  A
C249        C381   1.484       .  S
C250        C251   1.403       .  A
C250        H254   1.089       .  S
C251        C252   1.424       .  A
C251       C1256   1.506       .  S
C252        H255   1.094       .  S
C256        C257   1.418       .  A
C256        C261   1.397       .  A
C256        C885   1.492       .  S
C257        C258   1.418       .  A
C257        H262   1.083       .  S
C258        C259   1.398       .  A
C258       C1396   1.494       .  S
C259        C260   1.394       .  A
C259        H263   1.084       .  S
C260        C261   1.392       .  A
C260        C353   1.477       .  S
C261        H264   1.087       .  S
O265        V273   1.886   1_655  S
O265        C275   1.261       .  A
O266        V273   1.883   1_565  S
O266        C276   1.261       .  A
O267        V273   1.887       .  S
O267        C277   1.262       .  A
O268        V273   1.889   1_665  S
O268        C278   1.263       .  A
O269        V274   1.890   1_665  S
O269        C278   1.262       .  A
O270        V274   1.889       .  S
O270        C277   1.262       .  A
O271        V274   1.905   1_565  S
O271        C276   1.266       .  A
O272        V274   1.900   1_655  S
O272        C275   1.265       .  A
V273        V274   2.088       .  T
C275       C2264   1.475       .  S
C276       C2348   1.485       .  S
C277        C360   1.470       .  S
C278       C2180   1.484       .  S
O279        V287   1.889       .  S
O279        C289   1.262       .  A
O280        V287   1.891   1_546  S
O280        C290   1.263       .  A
O281        V287   1.889   1_545  S
O281        C291   1.262       .  A
O282        V287   1.885   1_556  S
O282        C292   1.261       .  A
O283        V288   1.890   1_556  S
O283        C292   1.262       .  A
O284        V288   1.887   1_545  S
O284        C291   1.262       .  A
O285        V288   1.889   1_546  S
O285        C290   1.263       .  A
O286        V288   1.889       .  S
O286        C289   1.262       .  A
V287        V288   2.086       .  T
C289       C2096   1.471       .  S
C290       C1844   1.485       .  S
C291        C409   1.492       .  S
C292       C1676   1.466       .  S
O293        V301   1.893       .  S
O293        C303   1.263       .  A
O294        V301   1.896   1_454  S
O294        C304   1.264       .  A
O295        V301   1.891   1_554  S
O295        C305   1.262       .  A
O296        V301   1.890   1_455  S
O296        C306   1.263       .  A
O297        V302   1.887   1_455  S
O297        C306   1.261       .  A
O298        V302   1.887   1_554  S
O298        C305   1.262       .  A
O299        V302   1.885   1_454  S
O299        C304   1.262       .  A
O300        V302   1.885       .  S
O300        C303   1.261       .  A
V301        V302   2.089       .  T
C303       C1928   1.473       .  S
C304        C388   1.483       .  S
C305       C2012   1.469       .  S
C306       C1760   1.471       .  S
O307        V315   1.889       .  S
O307        C317   1.263   1_554  A
O308        V315   1.891       .  S
O308        C318   1.263   1_554  A
O309        V315   1.884       .  S
O309        C319   1.261   1_554  A
O310        V315   1.882       .  S
O310        C320   1.261   1_554  A
O311        V316   1.890       .  S
O311        C320   1.263       .  A
O312        V316   1.892       .  S
O312        C319   1.263       .  A
O313        V316   1.894       .  S
O313        C318   1.263       .  A
O314        V316   1.896       .  S
O314        C317   1.263       .  A
V315        V316   2.088   1_554  T
C317        C472   1.474       .  S
C318        C500   1.476       .  S
C319        C969   1.476       .  S
C320        C444   1.477       .  S
O321        V329   1.883       .  S
O321        C331   1.261   1_455  A
O322        V329   1.884       .  S
O322        C332   1.261   1_455  A
O323        V329   1.894       .  S
O323        C333   1.264   1_455  A
O324        V329   1.893       .  S
O324        C334   1.264   1_455  A
O325        V330   1.887       .  S
O325        C334   1.261       .  A
O326        V330   1.888       .  S
O326        C333   1.261       .  A
O327        V330   1.902       .  S
O327        C332   1.266       .  A
O328        V330   1.901       .  S
O328        C331   1.266       .  A
V329        V330   2.084   1_455  T
C331        C668   1.485       .  S
C332       C1032   1.491       .  S
C333        C717   1.478       .  S
C334       C1536   1.477       .  S
O335        V343   1.887       .  S
O335        C345   1.262   1_545  A
O336        V343   1.889       .  S
O336        C346   1.263   1_545  A
O337        V343   1.897       .  S
O337        C347   1.265   1_545  A
O338        V343   1.896       .  S
O338        C348   1.263   1_545  A
O339        V344   1.893       .  S
O339        C348   1.263       .  A
O340        V344   1.892       .  S
O340        C347   1.262       .  A
O341        V344   1.888       .  S
O341        C346   1.262       .  A
O342        V344   1.887       .  S
O342        C345   1.262       .  A
V343        V344   2.088   1_545  T
C345        C836   1.469       .  S
C346       C1116   1.484       .  S
C347       C1333   1.479       .  S
C348        C556   1.479       .  S
C349        C350   1.407       .  A
C349        C354   1.406       .  A
C349        C367   1.450       .  S
C350        C351   1.409       .  A
C350        C355   1.480       .  S
C351        C352   1.402       .  A
C351        C356   1.452       .  S
C352        C353   1.414       .  A
C352        C368   1.452       .  S
C353        C354   1.414       .  A
C354        C357   1.451       .  S
C355        C358   1.407       .  A
C355        C362   1.409       .  A
C356        N373   1.157       .  T
C357        N375   1.157       .  T
C358        C359   1.406       .  A
C358        C363   1.450       .  S
C359        C360   1.413       .  A
C359        C365   1.451       .  S
C360        C361   1.413       .  A
C361        C362   1.402       .  A
C361        C364   1.453       .  S
C362        C366   1.453       .  S
C363        N370   1.157       .  T
C364        N371   1.157       .  T
C365        N369   1.157   1_545  T
C366        N372   1.157       .  T
C367        N376   1.157       .  T
C368        N374   1.157       .  T
C377        C378   1.410       .  A
C377        C382   1.408       .  A
C377        C395   1.451       .  S
C378        C379   1.407       .  A
C378        C383   1.485       .  S
C379        C380   1.405       .  A
C379        C384   1.452       .  S
C380        C381   1.415       .  A
C380        C396   1.451       .  S
C381        C382   1.414       .  A
C382        C385   1.451       .  S
C383        C386   1.408       .  A
C383        C390   1.407       .  A
C384        N401   1.157       .  T
C385        N403   1.157       .  T
C386        C387   1.408       .  A
C386        C391   1.451       .  S
C387        C388   1.418       .  A
C387        C393   1.451       .  S
C388        C389   1.417       .  A
C389        C390   1.404       .  A
C389        C392   1.452       .  S
C390        C394   1.452       .  S
C391        N398   1.157       .  T
C392        N399   1.157   1_455  T
C393        N397   1.158       .  T
C394        N400   1.157       .  T
C395        N404   1.157       .  T
C396        N402   1.157       .  T
C405        C406   1.404       .  A
C405        C410   1.405       .  A
C405        C423   1.453       .  S
C406        C407   1.404       .  A
C406        C411   1.479       .  S
C407        C408   1.405       .  A
C407        C412   1.453       .  S
C408        C409   1.424       .  A
C408        C424   1.452       .  S
C409        C410   1.424       .  A
C410        C413   1.452       .  S
C411        C414   1.407       .  A
C411        C418   1.409       .  A
C412        N429   1.157       .  T
C413        N431   1.157       .  T
C414        C415   1.401       .  A
C414        C419   1.452       .  S
C415        C416   1.413       .  A
C415        C421   1.452       .  S
C416        C417   1.411       .  A
C417        C418   1.405       .  A
C417        C420   1.451       .  S
C418        C422   1.451       .  S
C419        N426   1.157       .  T
C420        N427   1.157       .  T
C421        N425   1.157       .  T
C422        N428   1.157       .  T
C423        N432   1.157       .  T
C424        N430   1.157       .  T
C433        C434   1.410       .  A
C433        C438   1.403       .  A
C433        C451   1.452   1_556  S
C434        C435   1.408       .  A
C434        C439   1.479       .  S
C435        C436   1.403       .  A
C435        C440   1.451       .  S
C436        C437   1.411       .  A
C436        C452   1.451       .  S
C437        C438   1.411       .  A
C438        C441   1.452   1_556  S
C439        C442   1.406   1_556  A
C439        C446   1.407       .  A
C440        N457   1.157       .  T
C441        N459   1.157       .  T
C442        C443   1.404       .  A
C442        C447   1.452       .  S
C443        C444   1.417   1_554  A
C443        C449   1.452       .  S
C444        C445   1.417       .  A
C445        C446   1.403       .  A
C445        C448   1.452       .  S
C446        C450   1.452       .  S
C447        N454   1.157       .  T
C448        N455   1.157       .  T
C449        N453   1.157       .  T
C450        N456   1.157       .  T
C451        N460   1.157       .  T
C452        N458   1.157       .  T
C461        C462   1.410       .  A
C461        C466   1.409       .  A
C461        C479   1.450       .  S
C462        C463   1.412   1_556  A
C462        C467   1.490       .  S
C463        C464   1.405       .  A
C463        C468   1.453       .  S
C464        C465   1.413       .  A
C464        C480   1.452       .  S
C465        C466   1.414   1_554  A
C466        C469   1.451       .  S
C467        C470   1.413       .  A
C467        C474   1.410   1_556  A
C468        N485   1.157       .  T
C469        N487   1.157       .  T
C470        C471   1.407       .  A
C470        C475   1.451       .  S
C471        C472   1.411       .  A
C471        C477   1.451       .  S
C472        C473   1.413       .  A
C473        C474   1.407   1_556  A
C473        C476   1.452   1_556  S
C474        C478   1.450       .  S
C475        N482   1.157       .  T
C476        N483   1.157       .  T
C477        N481   1.157       .  T
C478        N484   1.157       .  T
C479        N488   1.157       .  T
C480        N486   1.157       .  T
C489        C490   1.410   1_554  A
C489        C494   1.407       .  A
C489        C507   1.451       .  S
C490        C491   1.408       .  A
C490        C495   1.487       .  S
C491        C492   1.407       .  A
C491        C496   1.451       .  S
C492        C493   1.415   1_556  A
C492        C508   1.451       .  S
C493        C494   1.414       .  A
C494        C497   1.452       .  S
C495        C498   1.409   1_556  A
C495        C502   1.410       .  A
C496        N513   1.157       .  T
C497        N515   1.157       .  T
C498        C499   1.408       .  A
C498        C503   1.450       .  S
C499        C500   1.414   1_554  A
C499        C505   1.452       .  S
C500        C501   1.413       .  A
C501        C502   1.406       .  A
C501        C504   1.452       .  S
C502        C506   1.452       .  S
C503        N510   1.157       .  T
C504        N511   1.157       .  T
C505        N509   1.157       .  T
C506        N512   1.157       .  T
C507        N516   1.157       .  T
C508        N514   1.157       .  T
C517        C518   1.414       .  A
C517        C522   1.426       .  A
C517        C535   1.449       .  S
C518        C519   1.404       .  A
C518        C523   1.518       .  S
C519        C520   1.416       .  A
C519        C524   1.453       .  S
C520        C521   1.426       .  A
C520        C536   1.443       .  S
C521        C522   1.422       .  A
C522        C525   1.445       .  S
C523        C526   1.414       .  A
C523        C530   1.416       .  A
C524        N541   1.157       .  T
C525        N543   1.157       .  T
C526        C527   1.417       .  A
C526        C531   1.450       .  S
C527        C528   1.416       .  A
C527        C533   1.450       .  S
C528        C529   1.415       .  A
C529        C530   1.421       .  A
C529        C532   1.449       .  S
C530        C534   1.449       .  S
C531        N538   1.157       .  T
C532        N539   1.157       .  T
C533        N537   1.157       .  T
C534        N540   1.157       .  T
C535        N544   1.157       .  T
C536        N542   1.155       .  T
C545        C546   1.408       .  A
C545        C550   1.410       .  A
C545        C563   1.451       .  S
C546        C547   1.410   1_565  A
C546        C551   1.489       .  S
C547        C548   1.406       .  A
C547        C552   1.452       .  S
C548        C549   1.415   1_545  A
C548        C564   1.452       .  S
C549        C550   1.418       .  A
C550        C553   1.452       .  S
C551        C554   1.408       .  A
C551        C558   1.410   1_565  A
C552        N569   1.157       .  T
C553        N571   1.157       .  T
C554        C555   1.406       .  A
C554        C559   1.451       .  S
C555        C556   1.415       .  A
C555        C561   1.452       .  S
C556        C557   1.414       .  A
C557        C558   1.410   1_565  A
C557        C560   1.451   1_565  S
C558        C562   1.450       .  S
C559        N566   1.157       .  T
C560        N567   1.157       .  T
C561        N565   1.157       .  T
C562        N568   1.157       .  T
C563        N572   1.157       .  T
C564        N570   1.157       .  T
C573        C574   1.413       .  A
C573        C578   1.412       .  A
C573        C591   1.448       .  S
C574        C575   1.412       .  A
C574        C579   1.503       .  S
C575        C576   1.414       .  A
C575        C580   1.450       .  S
C576        C577   1.414       .  A
C576        C592   1.450       .  S
C577        C578   1.410       .  A
C578        C581   1.450       .  S
C579        C582   1.401       .  A
C579        C586   1.410       .  A
C580        N597   1.157       .  T
C581        N599   1.157       .  T
C582        C583   1.412       .  A
C582        C587   1.453       .  S
C583        C584   1.427       .  A
C583        C589   1.443       .  S
C584        C585   1.422       .  A
C585        C586   1.420       .  A
C585        C588   1.445       .  S
C586        C590   1.450       .  S
C587        N594   1.157       .  T
C588        N595   1.157       .  T
C589        N593   1.155       .  T
C590        N596   1.157       .  T
C591        N600   1.157       .  T
C592        N598   1.157       .  T
C601        C602   1.413       .  A
C601        C606   1.414       .  A
C601        C619   1.450       .  S
C602        C603   1.420       .  A
C602        C607   1.521       .  S
C603        C604   1.423       .  A
C603        C608   1.449       .  S
C604        C605   1.414       .  A
C604        C620   1.449       .  S
C605        C606   1.419       .  A
C606        C609   1.452       .  S
C607        C610   1.415       .  A
C607        C614   1.408       .  A
C608        N625   1.157       .  T
C609        N627   1.157       .  T
C610        C611   1.426       .  A
C610        C615   1.450       .  S
C611        C612   1.436       .  A
C611        C617   1.449       .  S
C612        C613   1.420       .  A
C613        C614   1.413       .  A
C613        C616   1.441       .  S
C614        C618   1.452       .  S
C615        N622   1.157       .  T
C616        N623   1.156       .  T
C617        N621   1.158       .  T
C618        N624   1.157       .  T
C619        N628   1.157       .  T
C620        N626   1.157       .  T
C629        C630   1.405       .  A
C629        C634   1.412       .  A
C629        C647   1.453       .  S
C630        C631   1.411       .  A
C630        C635   1.506       .  S
C631        C632   1.419       .  A
C631        C636   1.451       .  S
C632        C633   1.421       .  A
C632        C648   1.445       .  S
C633        C634   1.423       .  A
C634        C637   1.446       .  S
C635        C638   1.413       .  A
C635        C642   1.414       .  A
C636        N653   1.157       .  T
C637        N655   1.156       .  T
C638        C639   1.413       .  A
C638        C643   1.450       .  S
C639        C640   1.413       .  A
C639        C645   1.451       .  S
C640        C641   1.415       .  A
C641        C642   1.415       .  A
C641        C644   1.450       .  S
C642        C646   1.451       .  S
C643        N650   1.157       .  T
C644        N651   1.157       .  T
C645        N649   1.157       .  T
C646        N652   1.157       .  T
C647        N656   1.157       .  T
C648        N654   1.157       .  T
C657        C658   1.410       .  A
C657        C662   1.406       .  A
C657        C675   1.451       .  S
C658        C659   1.410   1_655  A
C658        C663   1.485       .  S
C659        C660   1.405       .  A
C659        C664   1.451       .  S
C660        C661   1.411   1_455  A
C660        C676   1.452       .  S
C661        C662   1.411       .  A
C662        C665   1.451       .  S
C663        C666   1.406   1_655  A
C663        C670   1.408       .  A
C664        N681   1.157       .  T
C665        N683   1.157       .  T
C666        C667   1.406       .  A
C666        C671   1.452       .  S
C667        C668   1.419   1_455  A
C667        C673   1.452       .  S
C668        C669   1.418       .  A
C669        C670   1.408       .  A
C669        C672   1.451       .  S
C670        C674   1.452       .  S
C671        N678   1.157       .  T
C672        N679   1.157       .  T
C673        N677   1.157       .  T
C674        N680   1.157       .  T
C675        N684   1.157       .  T
C676        N682   1.157       .  T
C685        C686   1.417       .  A
C685        C690   1.419       .  A
C685        C703   1.449       .  S
C686        C687   1.414       .  A
C686        C691   1.517       .  S
C687        C688   1.416       .  A
C687        C692   1.450       .  S
C688        C689   1.415       .  A
C688        C704   1.450       .  S
C689        C690   1.414       .  A
C690        C693   1.450       .  S
C691        C694   1.406       .  A
C691        C698   1.410       .  A
C692        N709   1.157       .  T
C693        N711   1.157       .  T
C694        C695   1.418       .  A
C694        C699   1.453       .  S
C695        C696   1.428       .  A
C695        C701   1.445       .  S
C696        C697   1.427       .  A
C697        C698   1.423       .  A
C697        C700   1.443       .  S
C698        C702   1.451       .  S
C699        N706   1.157       .  T
C700        N707   1.157       .  T
C701        N705   1.156       .  T
C702        N708   1.157       .  T
C703        N712   1.157       .  T
C704        N710   1.157       .  T
C713        C714   1.409   1_655  A
C713        C718   1.405       .  A
C713        C731   1.452       .  S
C714        C715   1.407       .  A
C714        C719   1.484       .  S
C715        C716   1.407       .  A
C715        C720   1.450       .  S
C716        C717   1.415   1_455  A
C716        C732   1.452       .  S
C717        C718   1.415       .  A
C718        C721   1.452       .  S
C719        C722   1.409       .  A
C719        C726   1.408   1_455  A
C720        N737   1.157       .  T
C721        N739   1.157       .  T
C722        C723   1.404       .  A
C722        C727   1.452       .  S
C723        C724   1.414       .  A
C723        C729   1.452       .  S
C724        C725   1.414       .  A
C725        C726   1.407   1_455  A
C725        C728   1.451   1_455  S
C726        C730   1.450       .  S
C727        N734   1.157       .  T
C728        N735   1.157       .  T
C729        N733   1.157       .  T
C730        N736   1.157       .  T
C731        N740   1.157       .  T
C732        N738   1.157       .  T
C741        C742   1.416       .  A
C741        C746   1.414       .  A
C741        C759   1.451       .  S
C742        C743   1.415       .  A
C742        C747   1.512       .  S
C743        C744   1.417       .  A
C743        C748   1.450       .  S
C744        C745   1.412       .  A
C744        C760   1.450       .  S
C745        C746   1.413       .  A
C746        C749   1.451       .  S
C747        C750   1.413       .  A
C747        C754   1.404       .  A
C748        N765   1.157       .  T
C749        N767   1.157       .  T
C750        C751   1.424       .  A
C750        C755   1.450       .  S
C751        C752   1.423       .  A
C751        C757   1.445       .  S
C752        C753   1.425       .  A
C753        C754   1.412       .  A
C753        C756   1.443       .  S
C754        C758   1.454       .  S
C755        N762   1.157       .  T
C756        N763   1.155       .  T
C757        N761   1.157       .  T
C758        N764   1.157       .  T
C759        N768   1.157       .  T
C760        N766   1.157       .  T
C769        C770   1.414       .  A
C769        C774   1.417       .  A
C769        C787   1.450       .  S
C770        C771   1.415       .  A
C770        C775   1.513       .  S
C771        C772   1.417       .  A
C771        C776   1.448       .  S
C772        C773   1.412       .  A
C772        C788   1.450       .  S
C773        C774   1.415       .  A
C774        C777   1.450       .  S
C775        C778   1.411       .  A
C775        C782   1.403       .  A
C776        N793   1.157       .  T
C777        N795   1.157       .  T
C778        C779   1.425       .  A
C778        C783   1.450       .  S
C779        C780   1.425       .  A
C779        C785   1.445       .  S
C780        C781   1.426       .  A
C781        C782   1.415       .  A
C781        C784   1.443       .  S
C782        C786   1.453       .  S
C783        N790   1.157       .  T
C784        N791   1.155       .  T
C785        N789   1.157       .  T
C786        N792   1.157       .  T
C787        N796   1.157       .  T
C788        N794   1.157       .  T
C797        C798   1.411       .  A
C797        C802   1.421       .  A
C797        C815   1.450       .  S
C798        C799   1.403       .  A
C798        C803   1.508       .  S
C799        C800   1.412       .  A
C799        C804   1.453       .  S
C800        C801   1.425       .  A
C800        C816   1.444       .  S
C801        C802   1.421       .  A
C802        C805   1.445       .  S
C803        C806   1.413       .  A
C803        C810   1.413       .  A
C804        N821   1.157       .  T
C805        N823   1.157       .  T
C806        C807   1.416       .  A
C806        C811   1.450       .  S
C807        C808   1.413       .  A
C807        C813   1.449       .  S
C808        C809   1.412       .  A
C809        C810   1.412       .  A
C809        C812   1.451       .  S
C810        C814   1.447       .  S
C811        N818   1.157       .  T
C812        N819   1.157       .  T
C813        N817   1.157       .  T
C814        N820   1.156       .  T
C815        N824   1.157       .  T
C816        N822   1.156       .  T
C825        C826   1.407       .  A
C825        C830   1.406       .  A
C825        C843   1.450       .  S
C826        C827   1.410   1_565  A
C826        C831   1.480       .  S
C827        C828   1.403       .  A
C827        C832   1.453       .  S
C828        C829   1.412       .  A
C828        C844   1.452       .  S
C829        C830   1.414   1_545  A
C830        C833   1.451       .  S
C831        C834   1.409       .  A
C831        C838   1.408   1_565  A
C832        N849   1.157       .  T
C833        N851   1.157       .  T
C834        C835   1.402       .  A
C834        C839   1.452       .  S
C835        C836   1.412       .  A
C835        C841   1.452       .  S
C836        C837   1.413   1_565  A
C837        C838   1.406       .  A
C837        C840   1.452       .  S
C838        C842   1.450       .  S
C839        N846   1.157       .  T
C840        N847   1.157       .  T
C841        N845   1.157       .  T
C842        N848   1.157       .  T
C843        N852   1.157       .  T
C844        N850   1.157       .  T
C853        C854   1.413       .  A
C853        C858   1.414       .  A
C853        C871   1.449       .  S
C854        C855   1.414       .  A
C854        C859   1.508       .  S
C855        C856   1.415       .  A
C855        C860   1.450       .  S
C856        C857   1.413       .  A
C856        C872   1.450       .  S
C857        C858   1.412       .  A
C858        C861   1.451       .  S
C859        C862   1.401       .  A
C859        C866   1.412       .  A
C860        N877   1.157       .  T
C861        N879   1.157       .  T
C862        C863   1.411       .  A
C862        C867   1.455       .  S
C863        C864   1.425       .  A
C863        C869   1.442       .  S
C864        C865   1.422       .  A
C865        C866   1.423       .  A
C865        C868   1.446       .  S
C866        C870   1.449       .  S
C867        N874   1.157       .  T
C868        N875   1.157       .  T
C869        N873   1.155       .  T
C870        N876   1.157       .  T
C871        N880   1.157       .  T
C872        N878   1.157       .  T
C881        C882   1.413       .  A
C881        C886   1.413       .  A
C881        C899   1.448       .  S
C882        C883   1.415       .  A
C882        C887   1.508       .  S
C883        C884   1.416       .  A
C883        C888   1.450       .  S
C884        C885   1.413       .  A
C884        C900   1.450       .  S
C885        C886   1.413       .  A
C886        C889   1.451       .  S
C887        C890   1.403       .  A
C887        C894   1.412       .  A
C888        N905   1.157       .  T
C889        N907   1.157       .  T
C890        C891   1.411       .  A
C890        C895   1.454       .  S
C891        C892   1.424       .  A
C891        C897   1.444       .  S
C892        C893   1.423       .  A
C893        C894   1.423       .  A
C893        C896   1.446       .  S
C894        C898   1.450       .  S
C895        N902   1.157       .  T
C896        N903   1.157       .  T
C897        N901   1.155       .  T
C898        N904   1.157       .  T
C899        N908   1.156       .  T
C900        N906   1.157       .  T
C909        C910   1.414       .  A
C909        C914   1.417       .  A
C909        C927   1.449       .  S
C910        C911   1.415       .  A
C910        C915   1.514       .  S
C911        C912   1.417       .  A
C911        C916   1.450       .  S
C912        C913   1.414       .  A
C912        C928   1.450       .  S
C913        C914   1.414       .  A
C914        C917   1.450       .  S
C915        C918   1.404       .  A
C915        C922   1.413       .  A
C916        N933   1.157       .  T
C917        N935   1.157       .  T
C918        C919   1.414       .  A
C918        C923   1.453       .  S
C919        C920   1.425       .  A
C919        C925   1.444       .  S
C920        C921   1.423       .  A
C921        C922   1.424       .  A
C921        C924   1.445       .  S
C922        C926   1.450       .  S
C923        N930   1.157       .  T
C924        N931   1.157       .  T
C925        N929   1.156       .  T
C926        N932   1.157       .  T
C927        N936   1.157       .  T
C928        N934   1.157       .  T
C937        C938   1.414       .  A
C937        C942   1.416       .  A
C937        C955   1.450       .  S
C938        C939   1.414       .  A
C938        C943   1.509       .  S
C939        C940   1.413       .  A
C939        C944   1.451       .  S
C940        C941   1.415       .  A
C940        C956   1.451       .  S
C941        C942   1.413       .  A
C942        C945   1.450       .  S
C943        C946   1.404       .  A
C943        C950   1.412       .  A
C944        N961   1.157       .  T
C945        N963   1.157       .  T
C946        C947   1.412       .  A
C946        C951   1.454       .  S
C947        C948   1.424       .  A
C947        C953   1.444       .  S
C948        C949   1.423       .  A
C949        C950   1.422       .  A
C949        C952   1.445       .  S
C950        C954   1.450       .  S
C951        N958   1.157       .  T
C952        N959   1.157       .  T
C953        N957   1.155       .  T
C954        N960   1.157       .  T
C955        N964   1.157       .  T
C956        N962   1.157       .  T
C965        C966   1.407   1_554  A
C965        C970   1.405       .  A
C965        C983   1.451       .  S
C966        C967   1.408       .  A
C966        C971   1.482       .  S
C967        C968   1.404       .  A
C967        C972   1.452       .  S
C968        C969   1.415       .  A
C968        C984   1.452       .  S
C969        C970   1.416   1_556  A
C970        C973   1.452       .  S
C971        C974   1.410   1_556  A
C971        C978   1.407       .  A
C972        N989   1.157       .  T
C973        N991   1.157       .  T
C974        C975   1.404       .  A
C974        C979   1.452       .  S
C975        C976   1.412       .  A
C975        C981   1.452       .  S
C976        C977   1.413   1_554  A
C977        C978   1.405       .  A
C977        C980   1.451       .  S
C978        C982   1.451       .  S
C979        N986   1.157       .  T
C980        N987   1.157       .  T
C981        N985   1.157       .  T
C982        N988   1.157       .  T
C983        N992   1.157       .  T
C984        N990   1.157       .  T
C993        C994   1.414       .  A
C993        C998   1.415       .  A
C993       C1011   1.449       .  S
C994        C995   1.414       .  A
C994        C999   1.508       .  S
C995        C996   1.415       .  A
C995       C1000   1.450       .  S
C996        C997   1.413       .  A
C996       C1012   1.450       .  S
C997        C998   1.413       .  A
C998       C1001   1.451       .  S
C999       C1002   1.403       .  A
C999       C1006   1.412       .  A
C1000      N1017   1.157       .  T
C1001      N1019   1.157       .  T
C1002      C1003   1.412       .  A
C1002      C1007   1.454       .  S
C1003      C1004   1.426       .  A
C1003      C1009   1.443       .  S
C1004      C1005   1.423       .  A
C1005      C1006   1.422       .  A
C1005      C1008   1.445       .  S
C1006      C1010   1.450       .  S
C1007      N1014   1.157       .  T
C1008      N1015   1.157       .  T
C1009      N1013   1.155       .  T
C1010      N1016   1.157       .  T
C1011      N1020   1.157       .  T
C1012      N1018   1.157       .  T
C1021      C1022   1.412   1_455  A
C1021      C1026   1.406       .  A
C1021      C1039   1.451       .  S
C1022      C1023   1.411       .  A
C1022      C1027   1.489       .  S
C1023      C1024   1.406       .  A
C1023      C1028   1.450       .  S
C1024      C1025   1.409   1_655  A
C1024      C1040   1.451       .  S
C1025      C1026   1.409       .  A
C1026      C1029   1.451       .  S
C1027      C1030   1.409       .  A
C1027      C1034   1.407   1_655  A
C1028      N1045   1.157       .  T
C1029      N1047   1.157       .  T
C1030      C1031   1.408       .  A
C1030      C1035   1.452       .  S
C1031      C1032   1.419       .  A
C1031      C1037   1.451       .  S
C1032      C1033   1.421   1_655  A
C1033      C1034   1.407       .  A
C1033      C1036   1.452       .  S
C1034      C1038   1.452       .  S
C1035      N1042   1.157       .  T
C1036      N1043   1.157       .  T
C1037      N1041   1.157       .  T
C1038      N1044   1.157       .  T
C1039      N1048   1.157       .  T
C1040      N1046   1.157       .  T
C1049      C1050   1.415       .  A
C1049      C1054   1.427       .  A
C1049      C1067   1.449       .  S
C1050      C1051   1.404       .  A
C1050      C1055   1.516       .  S
C1051      C1052   1.413       .  A
C1051      C1056   1.455       .  S
C1052      C1053   1.425       .  A
C1052      C1068   1.442       .  S
C1053      C1054   1.422       .  A
C1054      C1057   1.446       .  S
C1055      C1058   1.416       .  A
C1055      C1062   1.415       .  A
C1056      N1073   1.157       .  T
C1057      N1075   1.157       .  T
C1058      C1059   1.416       .  A
C1058      C1063   1.451       .  S
C1059      C1060   1.415       .  A
C1059      C1065   1.451       .  S
C1060      C1061   1.416       .  A
C1061      C1062   1.420       .  A
C1061      C1064   1.450       .  S
C1062      C1066   1.449       .  S
C1063      N1070   1.157       .  T
C1064      N1071   1.157       .  T
C1065      N1069   1.157       .  T
C1066      N1072   1.157       .  T
C1067      N1076   1.157       .  T
C1068      N1074   1.155       .  T
C1077      C1078   1.402       .  A
C1077      C1082   1.411       .  A
C1077      C1095   1.454       .  S
C1078      C1079   1.411       .  A
C1078      C1083   1.508       .  S
C1079      C1080   1.423       .  A
C1079      C1084   1.450       .  S
C1080      C1081   1.424       .  A
C1080      C1096   1.446       .  S
C1081      C1082   1.427       .  A
C1082      C1085   1.443       .  S
C1083      C1086   1.415       .  A
C1083      C1090   1.412       .  A
C1084      N1101   1.157       .  T
C1085      N1103   1.155       .  T
C1086      C1087   1.417       .  A
C1086      C1091   1.449       .  S
C1087      C1088   1.413       .  A
C1087      C1093   1.450       .  S
C1088      C1089   1.414       .  A
C1089      C1090   1.412       .  A
C1089      C1092   1.451       .  S
C1090      C1094   1.451       .  S
C1091      N1098   1.157       .  T
C1092      N1099   1.157       .  T
C1093      N1097   1.157       .  T
C1094      N1100   1.157       .  T
C1095      N1104   1.157       .  T
C1096      N1102   1.157       .  T
C1105      C1106   1.408       .  A
C1105      C1110   1.405       .  A
C1105      C1123   1.450       .  S
C1106      C1107   1.410       .  A
C1106      C1111   1.479       .  S
C1107      C1108   1.401       .  A
C1107      C1112   1.452   1_565  S
C1108      C1109   1.410       .  A
C1108      C1124   1.452   1_565  S
C1109      C1110   1.410       .  A
C1110      C1113   1.451       .  S
C1111      C1114   1.406       .  A
C1111      C1118   1.405   1_565  A
C1112      N1129   1.157       .  T
C1113      N1131   1.157       .  T
C1114      C1115   1.404       .  A
C1114      C1119   1.453       .  S
C1115      C1116   1.420       .  A
C1115      C1121   1.452       .  S
C1116      C1117   1.420   1_565  A
C1117      C1118   1.406       .  A
C1117      C1120   1.452       .  S
C1118      C1122   1.452       .  S
C1119      N1126   1.157       .  T
C1120      N1127   1.157       .  T
C1121      N1125   1.157       .  T
C1122      N1128   1.157       .  T
C1123      N1132   1.157       .  T
C1124      N1130   1.157       .  T
C1133      C1134   1.415       .  A
C1133      C1138   1.414       .  A
C1133      C1151   1.451       .  S
C1134      C1135   1.413       .  A
C1134      C1139   1.507       .  S
C1135      C1136   1.415       .  A
C1135      C1140   1.450       .  S
C1136      C1137   1.413       .  A
C1136      C1152   1.450       .  S
C1137      C1138   1.412       .  A
C1138      C1141   1.450       .  S
C1139      C1142   1.413       .  A
C1139      C1146   1.403       .  A
C1140      N1157   1.157       .  T
C1141      N1159   1.157       .  T
C1142      C1143   1.422       .  A
C1142      C1147   1.450       .  S
C1143      C1144   1.421       .  A
C1143      C1149   1.446       .  S
C1144      C1145   1.424       .  A
C1145      C1146   1.409       .  A
C1145      C1148   1.444       .  S
C1146      C1150   1.454       .  S
C1147      N1154   1.157       .  T
C1148      N1155   1.156       .  T
C1149      N1153   1.157       .  T
C1150      N1156   1.157       .  T
C1151      N1160   1.157       .  T
C1152      N1158   1.157       .  T
C1161      C1162   1.402       .  A
C1161      C1166   1.409       .  A
C1161      C1179   1.455       .  S
C1162      C1163   1.412       .  A
C1162      C1167   1.505       .  S
C1163      C1164   1.422       .  A
C1163      C1168   1.450       .  S
C1164      C1165   1.422       .  A
C1164      C1180   1.445       .  S
C1165      C1166   1.424       .  A
C1166      C1169   1.442       .  S
C1167      C1170   1.413       .  A
C1167      C1174   1.413       .  A
C1168      N1185   1.157       .  T
C1169      N1187   1.155       .  T
C1170      C1171   1.412       .  A
C1170      C1175   1.451       .  S
C1171      C1172   1.413       .  A
C1171      C1177   1.450       .  S
C1172      C1173   1.414       .  A
C1173      C1174   1.415       .  A
C1173      C1176   1.450       .  S
C1174      C1178   1.450       .  S
C1175      N1182   1.157       .  T
C1176      N1183   1.157       .  T
C1177      N1181   1.157       .  T
C1178      N1184   1.157       .  T
C1179      N1188   1.157       .  T
C1180      N1186   1.157       .  T
C1189      C1190   1.414       .  A
C1189      C1194   1.416       .  A
C1189      C1207   1.448       .  S
C1190      C1191   1.415       .  A
C1190      C1195   1.515       .  S
C1191      C1192   1.420       .  A
C1191      C1196   1.450       .  S
C1192      C1193   1.415       .  A
C1192      C1208   1.449       .  S
C1193      C1194   1.413       .  A
C1194      C1197   1.451       .  S
C1195      C1198   1.412       .  A
C1195      C1202   1.404       .  A
C1196      N1213   1.157       .  T
C1197      N1215   1.157       .  T
C1198      C1199   1.425       .  A
C1198      C1203   1.449       .  S
C1199      C1200   1.423       .  A
C1199      C1205   1.445       .  S
C1200      C1201   1.425       .  A
C1201      C1202   1.415       .  A
C1201      C1204   1.443       .  S
C1202      C1206   1.453       .  S
C1203      N1210   1.157       .  T
C1204      N1211   1.155       .  T
C1205      N1209   1.157       .  T
C1206      N1212   1.157       .  T
C1207      N1216   1.156       .  T
C1208      N1214   1.157       .  T
C1217      C1218   1.413       .  A
C1217      C1222   1.414       .  A
C1217      C1235   1.449       .  S
C1218      C1219   1.413       .  A
C1218      C1223   1.507       .  S
C1219      C1220   1.414       .  A
C1219      C1224   1.450       .  S
C1220      C1221   1.414       .  A
C1220      C1236   1.450       .  S
C1221      C1222   1.413       .  A
C1222      C1225   1.451       .  S
C1223      C1226   1.411       .  A
C1223      C1230   1.402       .  A
C1224      N1241   1.157       .  T
C1225      N1243   1.157       .  T
C1226      C1227   1.422       .  A
C1226      C1231   1.450       .  S
C1227      C1228   1.424       .  A
C1227      C1233   1.446       .  S
C1228      C1229   1.425       .  A
C1229      C1230   1.411       .  A
C1229      C1232   1.442       .  S
C1230      C1234   1.454       .  S
C1231      N1238   1.157       .  T
C1232      N1239   1.155       .  T
C1233      N1237   1.157       .  T
C1234      N1240   1.157       .  T
C1235      N1244   1.157       .  T
C1236      N1242   1.157       .  T
C1245      C1246   1.405       .  A
C1245      C1250   1.418       .  A
C1245      C1263   1.452       .  S
C1246      C1247   1.414       .  A
C1246      C1251   1.520       .  S
C1247      C1248   1.426       .  A
C1247      C1252   1.449       .  S
C1248      C1249   1.422       .  A
C1248      C1264   1.445       .  S
C1249      C1250   1.425       .  A
C1250      C1253   1.443       .  S
C1251      C1254   1.415       .  A
C1251      C1258   1.414       .  A
C1252      N1269   1.157       .  T
C1253      N1271   1.155       .  T
C1254      C1255   1.421       .  A
C1254      C1259   1.448       .  S
C1255      C1256   1.415       .  A
C1255      C1261   1.450       .  S
C1256      C1257   1.416       .  A
C1257      C1258   1.420       .  A
C1257      C1260   1.449       .  S
C1258      C1262   1.450       .  S
C1259      N1266   1.157       .  T
C1260      N1267   1.157       .  T
C1261      N1265   1.157       .  T
C1262      N1268   1.157       .  T
C1263      N1272   1.157       .  T
C1264      N1270   1.157       .  T
C1273      C1274   1.414       .  A
C1273      C1278   1.417       .  A
C1273      C1291   1.450       .  S
C1274      C1275   1.414       .  A
C1274      C1279   1.512       .  S
C1275      C1276   1.417       .  A
C1275      C1280   1.449       .  S
C1276      C1277   1.413       .  A
C1276      C1292   1.450       .  S
C1277      C1278   1.415       .  A
C1278      C1281   1.450       .  S
C1279      C1282   1.413       .  A
C1279      C1286   1.404       .  A
C1280      N1297   1.157       .  T
C1281      N1299   1.157       .  T
C1282      C1283   1.423       .  A
C1282      C1287   1.449       .  S
C1283      C1284   1.420       .  A
C1283      C1289   1.445       .  S
C1284      C1285   1.424       .  A
C1285      C1286   1.414       .  A
C1285      C1288   1.443       .  S
C1286      C1290   1.453       .  S
C1287      N1294   1.157       .  T
C1288      N1295   1.156       .  T
C1289      N1293   1.157       .  T
C1290      N1296   1.157       .  T
C1291      N1300   1.157       .  T
C1292      N1298   1.157       .  T
C1301      C1302   1.414       .  A
C1301      C1306   1.416       .  A
C1301      C1319   1.450       .  S
C1302      C1303   1.411       .  A
C1302      C1307   1.504       .  S
C1303      C1304   1.412       .  A
C1303      C1308   1.450       .  S
C1304      C1305   1.413       .  A
C1304      C1320   1.450       .  S
C1305      C1306   1.413       .  A
C1306      C1309   1.450       .  S
C1307      C1310   1.403       .  A
C1307      C1314   1.409       .  A
C1308      N1325   1.157       .  T
C1309      N1327   1.157       .  T
C1310      C1311   1.411       .  A
C1310      C1315   1.453       .  S
C1311      C1312   1.424       .  A
C1311      C1317   1.445       .  S
C1312      C1313   1.424       .  A
C1313      C1314   1.420       .  A
C1313      C1316   1.446       .  S
C1314      C1318   1.451       .  S
C1315      N1322   1.157       .  T
C1316      N1323   1.157       .  T
C1317      N1321   1.156       .  T
C1318      N1324   1.157       .  T
C1319      N1328   1.157       .  T
C1320      N1326   1.157       .  T
C1329      C1330   1.410       .  A
C1329      C1334   1.407       .  A
C1329      C1347   1.451       .  S
C1330      C1331   1.409   1_565  A
C1330      C1335   1.489       .  S
C1331      C1332   1.409   1_545  A
C1331      C1336   1.450       .  S
C1332      C1333   1.414       .  A
C1332      C1348   1.451   1_565  S
C1333      C1334   1.414       .  A
C1334      C1337   1.452       .  S
C1335      C1338   1.409       .  A
C1335      C1342   1.411   1_565  A
C1336      N1353   1.157       .  T
C1337      N1355   1.157       .  T
C1338      C1339   1.410       .  A
C1338      C1343   1.450       .  S
C1339      C1340   1.415   1_565  A
C1339      C1345   1.450       .  S
C1340      C1341   1.414       .  A
C1341      C1342   1.406       .  A
C1341      C1344   1.452       .  S
C1342      C1346   1.452       .  S
C1343      N1350   1.157       .  T
C1344      N1351   1.157       .  T
C1345      N1349   1.157       .  T
C1346      N1352   1.157       .  T
C1347      N1356   1.157       .  T
C1348      N1354   1.157       .  T
C1357      C1358   1.415       .  A
C1357      C1362   1.429       .  A
C1357      C1375   1.450       .  S
C1358      C1359   1.405       .  A
C1358      C1363   1.524       .  S
C1359      C1360   1.420       .  A
C1359      C1364   1.453       .  S
C1360      C1361   1.429       .  A
C1360      C1376   1.443       .  S
C1361      C1362   1.427       .  A
C1362      C1365   1.446       .  S
C1363      C1366   1.415       .  A
C1363      C1370   1.420       .  A
C1364      N1381   1.157       .  T
C1365      N1383   1.157       .  T
C1366      C1367   1.420       .  A
C1366      C1371   1.450       .  S
C1367      C1368   1.418       .  A
C1367      C1373   1.450       .  S
C1368      C1369   1.411       .  A
C1369      C1370   1.421       .  A
C1369      C1372   1.451       .  S
C1370      C1374   1.447       .  S
C1371      N1378   1.157       .  T
C1372      N1379   1.157       .  T
C1373      N1377   1.157       .  T
C1374      N1380   1.156       .  T
C1375      N1384   1.157       .  T
C1376      N1382   1.155       .  T
C1385      C1386   1.403       .  A
C1385      C1390   1.414       .  A
C1385      C1403   1.453       .  S
C1386      C1387   1.412       .  A
C1386      C1391   1.510       .  S
C1387      C1388   1.423       .  A
C1387      C1392   1.450       .  S
C1388      C1389   1.423       .  A
C1388      C1404   1.445       .  S
C1389      C1390   1.426       .  A
C1390      C1393   1.443       .  S
C1391      C1394   1.413       .  A
C1391      C1398   1.415       .  A
C1392      N1409   1.157       .  T
C1393      N1411   1.155       .  T
C1394      C1395   1.414       .  A
C1394      C1399   1.450       .  S
C1395      C1396   1.414       .  A
C1395      C1401   1.450       .  S
C1396      C1397   1.412       .  A
C1397      C1398   1.417       .  A
C1397      C1400   1.451       .  S
C1398      C1402   1.448       .  S
C1399      N1406   1.157       .  T
C1400      N1407   1.157       .  T
C1401      N1405   1.157       .  T
C1402      N1408   1.157       .  T
C1403      N1412   1.157       .  T
C1404      N1410   1.157       .  T
C1413      C1414   1.403       .  A
C1413      C1418   1.410       .  A
C1413      C1431   1.454       .  S
C1414      C1415   1.412       .  A
C1414      C1419   1.505       .  S
C1415      C1416   1.420       .  A
C1415      C1420   1.450       .  S
C1416      C1417   1.420       .  A
C1416      C1432   1.445       .  S
C1417      C1418   1.424       .  A
C1418      C1421   1.444       .  S
C1419      C1422   1.414       .  A
C1419      C1426   1.413       .  A
C1420      N1437   1.157       .  T
C1421      N1439   1.155       .  T
C1422      C1423   1.414       .  A
C1422      C1427   1.450       .  S
C1423      C1424   1.413       .  A
C1423      C1429   1.450       .  S
C1424      C1425   1.412       .  A
C1425      C1426   1.413       .  A
C1425      C1428   1.450       .  S
C1426      C1430   1.449       .  S
C1427      N1434   1.157       .  T
C1428      N1435   1.157       .  T
C1429      N1433   1.157       .  T
C1430      N1436   1.157       .  T
C1431      N1440   1.157       .  T
C1432      N1438   1.157       .  T
C1441      C1442   1.415       .  A
C1441      C1446   1.419       .  A
C1441      C1459   1.450       .  S
C1442      C1443   1.417       .  A
C1442      C1447   1.522       .  S
C1443      C1444   1.421       .  A
C1443      C1448   1.450       .  S
C1444      C1445   1.415       .  A
C1444      C1460   1.450       .  S
C1445      C1446   1.416       .  A
C1446      C1449   1.450       .  S
C1447      C1450   1.414       .  A
C1447      C1454   1.406       .  A
C1448      N1465   1.157       .  T
C1449      N1467   1.157       .  T
C1450      C1451   1.427       .  A
C1450      C1455   1.450       .  S
C1451      C1452   1.424       .  A
C1451      C1457   1.445       .  S
C1452      C1453   1.426       .  A
C1453      C1454   1.418       .  A
C1453      C1456   1.443       .  S
C1454      C1458   1.453       .  S
C1455      N1462   1.157       .  T
C1456      N1463   1.156       .  T
C1457      N1461   1.157       .  T
C1458      N1464   1.157       .  T
C1459      N1468   1.157       .  T
C1460      N1466   1.157       .  T
C1469      C1470   1.413       .  A
C1469      C1474   1.414       .  A
C1469      C1487   1.449       .  S
C1470      C1471   1.413       .  A
C1470      C1475   1.506       .  S
C1471      C1472   1.415       .  A
C1471      C1476   1.451       .  S
C1472      C1473   1.414       .  A
C1472      C1488   1.450       .  S
C1473      C1474   1.412       .  A
C1474      C1477   1.450       .  S
C1475      C1478   1.411       .  A
C1475      C1482   1.403       .  A
C1476      N1493   1.157       .  T
C1477      N1495   1.157       .  T
C1478      C1479   1.421       .  A
C1478      C1483   1.450       .  S
C1479      C1480   1.422       .  A
C1479      C1485   1.446       .  S
C1480      C1481   1.424       .  A
C1481      C1482   1.411       .  A
C1481      C1484   1.444       .  S
C1482      C1486   1.454       .  S
C1483      N1490   1.157       .  T
C1484      N1491   1.155       .  T
C1485      N1489   1.157       .  T
C1486      N1492   1.157       .  T
C1487      N1496   1.157       .  T
C1488      N1494   1.157       .  T
C1497      C1498   1.414       .  A
C1497      C1502   1.419       .  A
C1497      C1515   1.450       .  S
C1498      C1499   1.415       .  A
C1498      C1503   1.517       .  S
C1499      C1500   1.419       .  A
C1499      C1504   1.449       .  S
C1500      C1501   1.415       .  A
C1500      C1516   1.450       .  S
C1501      C1502   1.415       .  A
C1502      C1505   1.450       .  S
C1503      C1506   1.404       .  A
C1503      C1510   1.412       .  A
C1504      N1521   1.157       .  T
C1505      N1523   1.157       .  T
C1506      C1507   1.417       .  A
C1506      C1511   1.453       .  S
C1507      C1508   1.427       .  A
C1507      C1513   1.443       .  S
C1508      C1509   1.423       .  A
C1509      C1510   1.425       .  A
C1509      C1512   1.444       .  S
C1510      C1514   1.450       .  S
C1511      N1518   1.157       .  T
C1512      N1519   1.156       .  T
C1513      N1517   1.156       .  T
C1514      N1520   1.157       .  T
C1515      N1524   1.157       .  T
C1516      N1522   1.157       .  T
C1525      C1526   1.411   1_455  A
C1525      C1530   1.402       .  A
C1525      C1543   1.452       .  S
C1526      C1527   1.408       .  A
C1526      C1531   1.482       .  S
C1527      C1528   1.407       .  A
C1527      C1532   1.450       .  S
C1528      C1529   1.413       .  A
C1528      C1544   1.451       .  S
C1529      C1530   1.410   1_655  A
C1530      C1533   1.452       .  S
C1531      C1534   1.408       .  A
C1531      C1538   1.407   1_655  A
C1532      N1549   1.157       .  T
C1533      N1551   1.157       .  T
C1534      C1535   1.404       .  A
C1534      C1539   1.452       .  S
C1535      C1536   1.415       .  A
C1535      C1541   1.451       .  S
C1536      C1537   1.415   1_655  A
C1537      C1538   1.406       .  A
C1537      C1540   1.452       .  S
C1538      C1542   1.451       .  S
C1539      N1546   1.157       .  T
C1540      N1547   1.157       .  T
C1541      N1545   1.157       .  T
C1542      N1548   1.157       .  T
C1543      N1552   1.157       .  T
C1544      N1550   1.157       .  T
C1553      C1554   1.412       .  A
C1553      C1558   1.415       .  A
C1553      C1571   1.450       .  S
C1554      C1555   1.414       .  A
C1554      C1559   1.507       .  S
C1555      C1556   1.415       .  A
C1555      C1560   1.449       .  S
C1556      C1557   1.412       .  A
C1556      C1572   1.450       .  S
C1557      C1558   1.416       .  A
C1558      C1561   1.451       .  S
C1559      C1562   1.402       .  A
C1559      C1566   1.410       .  A
C1560      N1577   1.157       .  T
C1561      N1579   1.157       .  T
C1562      C1563   1.412       .  A
C1562      C1567   1.453       .  S
C1563      C1564   1.425       .  A
C1563      C1569   1.444       .  S
C1564      C1565   1.422       .  A
C1565      C1566   1.422       .  A
C1565      C1568   1.444       .  S
C1566      C1570   1.450       .  S
C1567      N1574   1.157       .  T
C1568      N1575   1.157       .  T
C1569      N1573   1.156       .  T
C1570      N1576   1.157       .  T
C1571      N1580   1.157       .  T
C1572      N1578   1.157       .  T
C1581      C1582   1.412       .  A
C1581      C1586   1.423       .  A
C1581      C1599   1.450       .  S
C1582      C1583   1.401       .  A
C1582      C1587   1.507       .  S
C1583      C1584   1.410       .  A
C1583      C1588   1.454       .  S
C1584      C1585   1.425       .  A
C1584      C1600   1.442       .  S
C1585      C1586   1.423       .  A
C1586      C1589   1.445       .  S
C1587      C1590   1.414       .  A
C1587      C1594   1.412       .  A
C1588      N1605   1.157       .  T
C1589      N1607   1.157       .  T
C1590      C1591   1.418       .  A
C1590      C1595   1.449       .  S
C1591      C1592   1.414       .  A
C1591      C1597   1.449       .  S
C1592      C1593   1.415       .  A
C1593      C1594   1.412       .  A
C1593      C1596   1.451       .  S
C1594      C1598   1.451       .  S
C1595      N1602   1.157       .  T
C1596      N1603   1.157       .  T
C1597      N1601   1.157       .  T
C1598      N1604   1.157       .  T
C1599      N1608   1.157       .  T
C1600      N1606   1.155       .  T
C1609      C1610   1.413       .  A
C1609      C1614   1.415       .  A
C1609      C1627   1.449       .  S
C1610      C1611   1.415       .  A
C1610      C1615   1.506       .  S
C1611      C1612   1.413       .  A
C1611      C1616   1.451       .  S
C1612      C1613   1.412       .  A
C1612      C1628   1.450       .  S
C1613      C1614   1.413       .  A
C1614      C1617   1.450       .  S
C1615      C1618   1.401       .  A
C1615      C1622   1.413       .  A
C1616      N1633   1.157       .  T
C1617      N1635   1.157       .  T
C1618      C1619   1.409       .  A
C1618      C1623   1.455       .  S
C1619      C1620   1.424       .  A
C1619      C1625   1.441       .  S
C1620      C1621   1.421       .  A
C1621      C1622   1.423       .  A
C1621      C1624   1.445       .  S
C1622      C1626   1.450       .  S
C1623      N1630   1.157       .  T
C1624      N1631   1.157       .  T
C1625      N1629   1.154       .  T
C1626      N1632   1.157       .  T
C1627      N1636   1.157       .  T
C1628      N1634   1.157       .  T
C1637      C1638   1.402       .  A
C1637      C1642   1.412       .  A
C1637      C1655   1.454       .  S
C1638      C1639   1.412       .  A
C1638      C1643   1.508       .  S
C1639      C1640   1.422       .  A
C1639      C1644   1.450       .  S
C1640      C1641   1.422       .  A
C1640      C1656   1.445       .  S
C1641      C1642   1.426       .  A
C1642      C1645   1.443       .  S
C1643      C1646   1.414       .  A
C1643      C1650   1.413       .  A
C1644      N1661   1.157       .  T
C1645      N1663   1.156       .  T
C1646      C1647   1.415       .  A
C1646      C1651   1.449       .  S
C1647      C1648   1.412       .  A
C1647      C1653   1.450       .  S
C1648      C1649   1.414       .  A
C1649      C1650   1.414       .  A
C1649      C1652   1.450       .  S
C1650      C1654   1.450       .  S
C1651      N1658   1.157       .  T
C1652      N1659   1.157       .  T
C1653      N1657   1.157       .  T
C1654      N1660   1.157       .  T
C1655      N1664   1.157       .  T
C1656      N1662   1.157       .  T
C1665      C1666   1.409       .  A
C1665      C1670   1.405       .  A
C1665      C1683   1.451       .  S
C1666      C1667   1.407       .  A
C1666      C1671   1.481       .  S
C1667      C1668   1.403       .  A
C1667      C1672   1.452       .  S
C1668      C1669   1.417       .  A
C1668      C1684   1.453       .  S
C1669      C1670   1.414       .  A
C1670      C1673   1.452       .  S
C1671      C1674   1.410       .  A
C1671      C1678   1.409       .  A
C1672      N1689   1.157       .  T
C1673      N1691   1.157       .  T
C1674      C1675   1.403       .  A
C1674      C1679   1.451       .  S
C1675      C1676   1.411       .  A
C1675      C1681   1.452       .  S
C1676      C1677   1.412       .  A
C1677      C1678   1.404       .  A
C1677      C1680   1.452       .  S
C1678      C1682   1.451       .  S
C1679      N1686   1.157       .  T
C1680      N1687   1.157       .  T
C1681      N1685   1.157       .  T
C1682      N1688   1.157       .  T
C1683      N1692   1.157       .  T
C1684      N1690   1.157       .  T
C1693      C1694   1.414       .  A
C1693      C1698   1.416       .  A
C1693      C1711   1.450       .  S
C1694      C1695   1.415       .  A
C1694      C1699   1.512       .  S
C1695      C1696   1.416       .  A
C1695      C1700   1.450       .  S
C1696      C1697   1.414       .  A
C1696      C1712   1.450       .  S
C1697      C1698   1.414       .  A
C1698      C1701   1.450       .  S
C1699      C1702   1.404       .  A
C1699      C1706   1.413       .  A
C1700      N1717   1.157       .  T
C1701      N1719   1.157       .  T
C1702      C1703   1.413       .  A
C1702      C1707   1.454       .  S
C1703      C1704   1.425       .  A
C1703      C1709   1.443       .  S
C1704      C1705   1.423       .  A
C1705      C1706   1.423       .  A
C1705      C1708   1.445       .  S
C1706      C1710   1.450       .  S
C1707      N1714   1.157       .  T
C1708      N1715   1.157       .  T
C1709      N1713   1.155       .  T
C1710      N1716   1.157       .  T
C1711      N1720   1.157       .  T
C1712      N1718   1.157       .  T
C1721      C1722   1.414       .  A
C1721      C1726   1.414       .  A
C1721      C1739   1.451       .  S
C1722      C1723   1.415       .  A
C1722      C1727   1.512       .  S
C1723      C1724   1.417       .  A
C1723      C1728   1.448       .  S
C1724      C1725   1.414       .  A
C1724      C1740   1.450       .  S
C1725      C1726   1.414       .  A
C1726      C1729   1.450       .  S
C1727      C1730   1.412       .  A
C1727      C1734   1.405       .  A
C1728      N1745   1.157       .  T
C1729      N1747   1.157       .  T
C1730      C1731   1.423       .  A
C1730      C1735   1.450       .  S
C1731      C1732   1.423       .  A
C1731      C1737   1.445       .  S
C1732      C1733   1.424       .  A
C1733      C1734   1.413       .  A
C1733      C1736   1.444       .  S
C1734      C1738   1.453       .  S
C1735      N1742   1.157       .  T
C1736      N1743   1.156       .  T
C1737      N1741   1.157       .  T
C1738      N1744   1.157       .  T
C1739      N1748   1.157       .  T
C1740      N1746   1.157       .  T
C1749      C1750   1.410       .  A
C1749      C1754   1.405       .  A
C1749      C1767   1.451       .  S
C1750      C1751   1.411       .  A
C1750      C1755   1.484       .  S
C1751      C1752   1.403       .  A
C1751      C1756   1.452       .  S
C1752      C1753   1.412       .  A
C1752      C1768   1.452       .  S
C1753      C1754   1.412       .  A
C1754      C1757   1.452       .  S
C1755      C1758   1.410       .  A
C1755      C1762   1.410       .  A
C1756      N1773   1.157       .  T
C1757      N1775   1.157       .  T
C1758      C1759   1.404       .  A
C1758      C1763   1.452       .  S
C1759      C1760   1.412       .  A
C1759      C1765   1.452       .  S
C1760      C1761   1.413       .  A
C1761      C1762   1.406       .  A
C1761      C1764   1.452       .  S
C1762      C1766   1.451       .  S
C1763      N1770   1.157       .  T
C1764      N1771   1.157       .  T
C1765      N1769   1.157       .  T
C1766      N1772   1.157       .  T
C1767      N1776   1.157       .  T
C1768      N1774   1.157       .  T
C1777      C1778   1.410       .  A
C1777      C1782   1.421       .  A
C1777      C1795   1.452       .  S
C1778      C1779   1.406       .  A
C1778      C1783   1.515       .  S
C1779      C1780   1.417       .  A
C1779      C1784   1.453       .  S
C1780      C1781   1.428       .  A
C1780      C1796   1.446       .  S
C1781      C1782   1.429       .  A
C1782      C1785   1.445       .  S
C1783      C1786   1.415       .  A
C1783      C1790   1.416       .  A
C1784      N1801   1.157       .  T
C1785      N1803   1.157       .  T
C1786      C1787   1.416       .  A
C1786      C1791   1.449       .  S
C1787      C1788   1.413       .  A
C1787      C1793   1.450       .  S
C1788      C1789   1.413       .  A
C1789      C1790   1.417       .  A
C1789      C1792   1.450       .  S
C1790      C1794   1.450       .  S
C1791      N1798   1.157       .  T
C1792      N1799   1.157       .  T
C1793      N1797   1.157       .  T
C1794      N1800   1.157       .  T
C1795      N1804   1.157       .  T
C1796      N1802   1.156       .  T
C1805      C1806   1.402       .  A
C1805      C1810   1.413       .  A
C1805      C1823   1.454       .  S
C1806      C1807   1.411       .  A
C1806      C1811   1.508       .  S
C1807      C1808   1.422       .  A
C1807      C1812   1.450       .  S
C1808      C1809   1.422       .  A
C1808      C1824   1.445       .  S
C1809      C1810   1.426       .  A
C1810      C1813   1.443       .  S
C1811      C1814   1.414       .  A
C1811      C1818   1.413       .  A
C1812      N1829   1.157       .  T
C1813      N1831   1.155       .  T
C1814      C1815   1.416       .  A
C1814      C1819   1.449       .  S
C1815      C1816   1.412       .  A
C1815      C1821   1.450       .  S
C1816      C1817   1.415       .  A
C1817      C1818   1.414       .  A
C1817      C1820   1.451       .  S
C1818      C1822   1.451       .  S
C1819      N1826   1.157       .  T
C1820      N1827   1.157       .  T
C1821      N1825   1.157       .  T
C1822      N1828   1.157       .  T
C1823      N1832   1.157       .  T
C1824      N1830   1.157       .  T
C1833      C1834   1.409       .  A
C1833      C1838   1.406       .  A
C1833      C1851   1.451       .  S
C1834      C1835   1.410       .  A
C1834      C1839   1.483       .  S
C1835      C1836   1.403       .  A
C1835      C1840   1.452       .  S
C1836      C1837   1.409       .  A
C1836      C1852   1.451       .  S
C1837      C1838   1.412       .  A
C1838      C1841   1.451       .  S
C1839      C1842   1.406       .  A
C1839      C1846   1.406       .  A
C1840      N1857   1.157       .  T
C1841      N1859   1.157       .  T
C1842      C1843   1.406       .  A
C1842      C1847   1.452       .  S
C1843      C1844   1.419       .  A
C1843      C1849   1.452       .  S
C1844      C1845   1.419       .  A
C1845      C1846   1.406       .  A
C1845      C1848   1.451       .  S
C1846      C1850   1.452       .  S
C1847      N1854   1.157       .  T
C1848      N1855   1.157       .  T
C1849      N1853   1.157       .  T
C1850      N1856   1.157       .  T
C1851      N1860   1.157       .  T
C1852      N1858   1.157       .  T
C1861      C1862   1.414       .  A
C1861      C1866   1.416       .  A
C1861      C1879   1.450       .  S
C1862      C1863   1.414       .  A
C1862      C1867   1.509       .  S
C1863      C1864   1.414       .  A
C1863      C1868   1.451       .  S
C1864      C1865   1.413       .  A
C1864      C1880   1.451       .  S
C1865      C1866   1.414       .  A
C1866      C1869   1.450       .  S
C1867      C1870   1.403       .  A
C1867      C1874   1.412       .  A
C1868      N1885   1.157       .  T
C1869      N1887   1.157       .  T
C1870      C1871   1.412       .  A
C1870      C1875   1.454       .  S
C1871      C1872   1.425       .  A
C1871      C1877   1.443       .  S
C1872      C1873   1.422       .  A
C1873      C1874   1.422       .  A
C1873      C1876   1.445       .  S
C1874      C1878   1.450       .  S
C1875      N1882   1.157       .  T
C1876      N1883   1.157       .  T
C1877      N1881   1.155       .  T
C1878      N1884   1.157       .  T
C1879      N1888   1.157       .  T
C1880      N1886   1.157       .  T
C1889      C1890   1.414       .  A
C1889      C1894   1.410       .  A
C1889      C1907   1.452       .  S
C1890      C1891   1.419       .  A
C1890      C1895   1.515       .  S
C1891      C1892   1.421       .  A
C1891      C1896   1.449       .  S
C1892      C1893   1.414       .  A
C1892      C1908   1.449       .  S
C1893      C1894   1.414       .  A
C1894      C1897   1.449       .  S
C1895      C1898   1.414       .  A
C1895      C1902   1.407       .  A
C1896      N1913   1.157       .  T
C1897      N1915   1.156       .  T
C1898      C1899   1.422       .  A
C1898      C1903   1.449       .  S
C1899      C1900   1.430       .  A
C1899      C1905   1.448       .  S
C1900      C1901   1.423       .  A
C1901      C1902   1.413       .  A
C1901      C1904   1.439       .  S
C1902      C1906   1.454       .  S
C1903      N1910   1.157       .  T
C1904      N1911   1.155       .  T
C1905      N1909   1.158       .  T
C1906      N1912   1.157       .  T
C1907      N1916   1.157       .  T
C1908      N1914   1.157       .  T
C1917      C1918   1.411       .  A
C1917      C1922   1.407       .  A
C1917      C1935   1.451       .  S
C1918      C1919   1.409       .  A
C1918      C1923   1.485       .  S
C1919      C1920   1.403       .  A
C1919      C1924   1.452       .  S
C1920      C1921   1.410       .  A
C1920      C1936   1.449       .  S
C1921      C1922   1.411       .  A
C1922      C1925   1.451       .  S
C1923      C1926   1.409       .  A
C1923      C1930   1.410       .  A
C1924      N1941   1.157       .  T
C1925      N1943   1.157       .  T
C1926      C1927   1.406       .  A
C1926      C1931   1.451       .  S
C1927      C1928   1.413       .  A
C1927      C1933   1.452       .  S
C1928      C1929   1.413       .  A
C1929      C1930   1.405       .  A
C1929      C1932   1.452       .  S
C1930      C1934   1.452       .  S
C1931      N1938   1.157       .  T
C1932      N1939   1.157       .  T
C1933      N1937   1.157       .  T
C1934      N1940   1.157       .  T
C1935      N1944   1.157       .  T
C1936      N1942   1.156       .  T
C1945      C1946   1.413       .  A
C1945      C1950   1.413       .  A
C1945      C1963   1.449       .  S
C1946      C1947   1.414       .  A
C1946      C1951   1.507       .  S
C1947      C1948   1.414       .  A
C1947      C1952   1.450       .  S
C1948      C1949   1.412       .  A
C1948      C1964   1.450       .  S
C1949      C1950   1.413       .  A
C1950      C1953   1.451       .  S
C1951      C1954   1.412       .  A
C1951      C1958   1.403       .  A
C1952      N1969   1.157       .  T
C1953      N1971   1.157       .  T
C1954      C1955   1.420       .  A
C1954      C1959   1.450       .  S
C1955      C1956   1.420       .  A
C1955      C1961   1.445       .  S
C1956      C1957   1.424       .  A
C1957      C1958   1.411       .  A
C1957      C1960   1.443       .  S
C1958      C1962   1.454       .  S
C1959      N1966   1.157       .  T
C1960      N1967   1.156       .  T
C1961      N1965   1.157       .  T
C1962      N1968   1.157       .  T
C1963      N1972   1.157       .  T
C1964      N1970   1.157       .  T
C1973      C1974   1.413       .  A
C1973      C1978   1.414       .  A
C1973      C1991   1.449       .  S
C1974      C1975   1.415       .  A
C1974      C1979   1.508       .  S
C1975      C1976   1.415       .  A
C1975      C1980   1.451       .  S
C1976      C1977   1.413       .  A
C1976      C1992   1.450       .  S
C1977      C1978   1.412       .  A
C1978      C1981   1.450       .  S
C1979      C1982   1.402       .  A
C1979      C1986   1.412       .  A
C1980      N1997   1.157       .  T
C1981      N1999   1.157       .  T
C1982      C1983   1.412       .  A
C1982      C1987   1.454       .  S
C1983      C1984   1.426       .  A
C1983      C1989   1.443       .  S
C1984      C1985   1.423       .  A
C1985      C1986   1.422       .  A
C1985      C1988   1.446       .  S
C1986      C1990   1.450       .  S
C1987      N1994   1.157       .  T
C1988      N1995   1.157       .  T
C1989      N1993   1.155       .  T
C1990      N1996   1.157       .  T
C1991      N2000   1.157       .  T
C1992      N1998   1.157       .  T
C2001      C2002   1.411       .  A
C2001      C2006   1.405       .  A
C2001      C2019   1.452       .  S
C2002      C2003   1.409       .  A
C2002      C2007   1.486       .  S
C2003      C2004   1.406       .  A
C2003      C2008   1.451       .  S
C2004      C2005   1.414       .  A
C2004      C2020   1.451       .  S
C2005      C2006   1.413       .  A
C2006      C2009   1.452       .  S
C2007      C2010   1.411       .  A
C2007      C2014   1.410       .  A
C2008      N2025   1.157       .  T
C2009      N2027   1.157       .  T
C2010      C2011   1.406       .  A
C2010      C2015   1.451       .  S
C2011      C2012   1.411       .  A
C2011      C2017   1.452       .  S
C2012      C2013   1.411       .  A
C2013      C2014   1.404       .  A
C2013      C2016   1.452       .  S
C2014      C2018   1.451       .  S
C2015      N2022   1.157       .  T
C2016      N2023   1.157   1_554  T
C2017      N2021   1.157       .  T
C2018      N2024   1.157       .  T
C2019      N2028   1.157       .  T
C2020      N2026   1.157       .  T
C2029      C2030   1.403       .  A
C2029      C2034   1.412       .  A
C2029      C2047   1.453       .  S
C2030      C2031   1.412       .  A
C2030      C2035   1.508       .  S
C2031      C2032   1.422       .  A
C2031      C2036   1.450       .  S
C2032      C2033   1.421       .  A
C2032      C2048   1.445       .  S
C2033      C2034   1.425       .  A
C2034      C2037   1.444       .  S
C2035      C2038   1.413       .  A
C2035      C2042   1.412       .  A
C2036      N2053   1.157       .  T
C2037      N2055   1.155       .  T
C2038      C2039   1.416       .  A
C2038      C2043   1.450       .  S
C2039      C2040   1.414       .  A
C2039      C2045   1.449       .  S
C2040      C2041   1.418       .  A
C2041      C2042   1.416       .  A
C2041      C2044   1.451       .  S
C2042      C2046   1.451       .  S
C2043      N2050   1.157       .  T
C2044      N2051   1.157       .  T
C2045      N2049   1.157       .  T
C2046      N2052   1.157       .  T
C2047      N2056   1.157       .  T
C2048      N2054   1.157       .  T
C2057      C2058   1.413       .  A
C2057      C2062   1.414       .  A
C2057      C2075   1.448       .  S
C2058      C2059   1.414       .  A
C2058      C2063   1.510       .  S
C2059      C2060   1.416       .  A
C2059      C2064   1.450       .  S
C2060      C2061   1.413       .  A
C2060      C2076   1.449       .  S
C2061      C2062   1.413       .  A
C2062      C2065   1.451       .  S
C2063      C2066   1.405       .  A
C2063      C2070   1.413       .  A
C2064      N2081   1.157       .  T
C2065      N2083   1.157       .  T
C2066      C2067   1.412       .  A
C2066      C2071   1.453       .  S
C2067      C2068   1.423       .  A
C2067      C2073   1.445       .  S
C2068      C2069   1.422       .  A
C2069      C2070   1.422       .  A
C2069      C2072   1.446       .  S
C2070      C2074   1.450       .  S
C2071      N2078   1.157       .  T
C2072      N2079   1.157       .  T
C2073      N2077   1.156       .  T
C2074      N2080   1.157       .  T
C2075      N2084   1.156       .  T
C2076      N2082   1.157       .  T
C2085      C2086   1.407       .  A
C2085      C2090   1.401       .  A
C2085      C2103   1.452       .  S
C2086      C2087   1.409       .  A
C2086      C2091   1.480       .  S
C2087      C2088   1.406       .  A
C2087      C2092   1.451       .  S
C2088      C2089   1.414       .  A
C2088      C2104   1.452       .  S
C2089      C2090   1.415       .  A
C2090      C2093   1.453       .  S
C2091      C2094   1.407       .  A
C2091      C2098   1.408       .  A
C2092      N2109   1.157       .  T
C2093      N2111   1.157       .  T
C2094      C2095   1.404       .  A
C2094      C2099   1.452       .  S
C2095      C2096   1.415       .  A
C2095      C2101   1.452       .  S
C2096      C2097   1.412       .  A
C2097      C2098   1.404       .  A
C2097      C2100   1.450       .  S
C2098      C2102   1.452       .  S
C2099      N2106   1.157       .  T
C2100      N2107   1.157       .  T
C2101      N2105   1.157       .  T
C2102      N2108   1.157       .  T
C2103      N2112   1.157       .  T
C2104      N2110   1.157       .  T
C2113      C2114   1.412       .  A
C2113      C2118   1.424       .  A
C2113      C2131   1.451       .  S
C2114      C2115   1.405       .  A
C2114      C2119   1.516       .  S
C2115      C2116   1.416       .  A
C2115      C2120   1.453       .  S
C2116      C2117   1.427       .  A
C2116      C2132   1.445       .  S
C2117      C2118   1.425       .  A
C2118      C2121   1.445       .  S
C2119      C2122   1.414       .  A
C2119      C2126   1.415       .  A
C2120      N2137   1.157       .  T
C2121      N2139   1.157       .  T
C2122      C2123   1.417       .  A
C2122      C2127   1.451       .  S
C2123      C2124   1.417       .  A
C2123      C2129   1.450       .  S
C2124      C2125   1.414       .  A
C2125      C2126   1.419       .  A
C2125      C2128   1.449       .  S
C2126      C2130   1.449       .  S
C2127      N2134   1.157       .  T
C2128      N2135   1.157       .  T
C2129      N2133   1.157       .  T
C2130      N2136   1.157       .  T
C2131      N2140   1.157       .  T
C2132      N2138   1.156       .  T
C2141      C2142   1.415       .  A
C2141      C2146   1.418       .  A
C2141      C2159   1.448       .  S
C2142      C2143   1.416       .  A
C2142      C2147   1.518       .  S
C2143      C2144   1.418       .  A
C2143      C2148   1.450       .  S
C2144      C2145   1.414       .  A
C2144      C2160   1.450       .  S
C2145      C2146   1.415       .  A
C2146      C2149   1.451       .  S
C2147      C2150   1.406       .  A
C2147      C2154   1.414       .  A
C2148      N2165   1.157       .  T
C2149      N2167   1.157       .  T
C2150      C2151   1.416       .  A
C2150      C2155   1.454       .  S
C2151      C2152   1.426       .  A
C2151      C2157   1.444       .  S
C2152      C2153   1.422       .  A
C2153      C2154   1.425       .  A
C2153      C2156   1.444       .  S
C2154      C2158   1.450       .  S
C2155      N2162   1.157       .  T
C2156      N2163   1.156       .  T
C2157      N2161   1.156       .  T
C2158      N2164   1.157       .  T
C2159      N2168   1.157       .  T
C2160      N2166   1.157       .  T
C2169      C2170   1.407       .  A
C2169      C2174   1.408       .  A
C2169      C2187   1.450       .  S
C2170      C2171   1.409       .  A
C2170      C2175   1.483       .  S
C2171      C2172   1.403       .  A
C2171      C2176   1.453       .  S
C2172      C2173   1.414       .  A
C2172      C2188   1.452       .  S
C2173      C2174   1.414       .  A
C2174      C2177   1.450       .  S
C2175      C2178   1.406       .  A
C2175      C2182   1.407       .  A
C2176      N2193   1.157       .  T
C2177      N2195   1.157       .  T
C2178      C2179   1.405       .  A
C2178      C2183   1.451       .  S
C2179      C2180   1.418       .  A
C2179      C2185   1.452       .  S
C2180      C2181   1.419       .  A
C2181      C2182   1.406       .  A
C2181      C2184   1.452       .  S
C2182      C2186   1.452       .  S
C2183      N2190   1.157       .  T
C2184      N2191   1.158       .  T
C2185      N2189   1.157   1_565  T
C2186      N2192   1.157       .  T
C2187      N2196   1.157       .  T
C2188      N2194   1.157       .  T
C2197      C2198   1.414       .  A
C2197      C2202   1.421       .  A
C2197      C2215   1.450       .  S
C2198      C2199   1.407       .  A
C2198      C2203   1.513       .  S
C2199      C2200   1.414       .  A
C2199      C2204   1.452       .  S
C2200      C2201   1.423       .  A
C2200      C2216   1.446       .  S
C2201      C2202   1.420       .  A
C2202      C2205   1.446       .  S
C2203      C2206   1.417       .  A
C2203      C2210   1.414       .  A
C2204      N2221   1.157       .  T
C2205      N2223   1.157       .  T
C2206      C2207   1.418       .  A
C2206      C2211   1.450       .  S
C2207      C2208   1.414       .  A
C2207      C2213   1.450       .  S
C2208      C2209   1.415       .  A
C2209      C2210   1.413       .  A
C2209      C2212   1.452       .  S
C2210      C2214   1.449       .  S
C2211      N2218   1.157       .  T
C2212      N2219   1.157       .  T
C2213      N2217   1.157       .  T
C2214      N2220   1.157       .  T
C2215      N2224   1.157       .  T
C2216      N2222   1.157       .  T
C2225      C2226   1.415       .  A
C2225      C2230   1.419       .  A
C2225      C2243   1.449       .  S
C2226      C2227   1.414       .  A
C2226      C2231   1.514       .  S
C2227      C2228   1.415       .  A
C2227      C2232   1.447       .  S
C2228      C2229   1.412       .  A
C2228      C2244   1.451       .  S
C2229      C2230   1.414       .  A
C2230      C2233   1.450       .  S
C2231      C2234   1.404       .  A
C2231      C2238   1.412       .  A
C2232      N2249   1.156       .  T
C2233      N2251   1.157       .  T
C2234      C2235   1.415       .  A
C2234      C2239   1.453       .  S
C2235      C2236   1.426       .  A
C2235      C2241   1.443       .  S
C2236      C2237   1.424       .  A
C2237      C2238   1.425       .  A
C2237      C2240   1.444       .  S
C2238      C2242   1.450       .  S
C2239      N2246   1.157       .  T
C2240      N2247   1.157       .  T
C2241      N2245   1.155       .  T
C2242      N2248   1.157       .  T
C2243      N2252   1.157       .  T
C2244      N2250   1.157       .  T
C2253      C2254   1.408       .  A
C2253      C2258   1.408       .  A
C2253      C2271   1.450       .  S
C2254      C2255   1.411       .  A
C2254      C2259   1.486       .  S
C2255      C2256   1.403       .  A
C2255      C2260   1.452       .  S
C2256      C2257   1.411       .  A
C2256      C2272   1.452       .  S
C2257      C2258   1.413       .  A
C2258      C2261   1.451       .  S
C2259      C2262   1.407       .  A
C2259      C2266   1.410       .  A
C2260      N2277   1.157       .  T
C2261      N2279   1.157       .  T
C2262      C2263   1.408       .  A
C2262      C2267   1.450       .  S
C2263      C2264   1.415       .  A
C2263      C2269   1.451   1_655  S
C2264      C2265   1.412       .  A
C2265      C2266   1.405       .  A
C2265      C2268   1.452       .  S
C2266      C2270   1.452       .  S
C2267      N2274   1.157       .  T
C2268      N2275   1.157       .  T
C2269      N2273   1.157       .  T
C2270      N2276   1.157       .  T
C2271      N2280   1.157       .  T
C2272      N2278   1.157       .  T
C2281      C2282   1.412       .  A
C2281      C2286   1.426       .  A
C2281      C2299   1.449       .  S
C2282      C2283   1.405       .  A
C2282      C2287   1.521       .  S
C2283      C2284   1.419       .  A
C2283      C2288   1.452       .  S
C2284      C2285   1.427       .  A
C2284      C2300   1.444       .  S
C2285      C2286   1.424       .  A
C2286      C2289   1.444       .  S
C2287      C2290   1.417       .  A
C2287      C2294   1.413       .  A
C2288      N2305   1.157       .  T
C2289      N2307   1.157       .  T
C2290      C2291   1.425       .  A
C2290      C2295   1.449       .  S
C2291      C2292   1.416       .  A
C2291      C2297   1.448       .  S
C2292      C2293   1.417       .  A
C2293      C2294   1.416       .  A
C2293      C2296   1.451       .  S
C2294      C2298   1.449       .  S
C2295      N2302   1.157       .  T
C2296      N2303   1.157       .  T
C2297      N2301   1.157       .  T
C2298      N2304   1.156       .  T
C2299      N2308   1.157       .  T
C2300      N2306   1.156       .  T
C2309      C2310   1.422       .  A
C2309      C2314   1.424       .  A
C2309      C2327   1.450       .  S
C2310      C2311   1.415       .  A
C2310      C2315   1.537       .  S
C2311      C2312   1.417       .  A
C2311      C2316   1.452       .  S
C2312      C2313   1.424       .  A
C2312      C2328   1.444       .  S
C2313      C2314   1.421       .  A
C2314      C2317   1.442       .  S
C2315      C2318   1.414       .  A
C2315      C2322   1.425       .  A
C2316      N2333   1.157       .  T
C2317      N2335   1.155       .  T
C2318      C2319   1.413       .  A
C2318      C2323   1.451       .  S
C2319      C2320   1.428       .  A
C2319      C2325   1.452       .  S
C2320      C2321   1.422       .  A
C2321      C2322   1.429       .  A
C2321      C2324   1.447       .  S
C2322      C2326   1.450       .  S
C2323      N2330   1.158       .  T
C2324      N2331   1.158       .  T
C2325      N2329   1.157       .  T
C2326      N2332   1.157       .  T
C2327      N2336   1.157       .  T
C2328      N2334   1.156       .  T
C2337      C2338   1.409       .  A
C2337      C2342   1.406       .  A
C2337      C2355   1.453       .  S
C2338      C2339   1.409       .  A
C2338      C2343   1.491       .  S
C2339      C2340   1.412       .  A
C2339      C2344   1.449       .  S
C2340      C2341   1.414       .  A
C2340      C2356   1.450       .  S
C2341      C2342   1.418       .  A
C2342      C2345   1.452       .  S
C2343      C2346   1.412       .  A
C2343      C2350   1.406       .  A
C2344      N2361   1.157       .  T
C2345      N2363   1.157       .  T
C2346      C2347   1.410       .  A
C2346      C2351   1.450       .  S
C2347      C2348   1.414       .  A
C2347      C2353   1.451       .  S
C2348      C2349   1.418       .  A
C2349      C2350   1.407       .  A
C2349      C2352   1.452       .  S
C2350      C2354   1.450       .  S
C2351      N2358   1.157       .  T
C2352      N2359   1.157   1_455  T
C2353      N2357   1.158       .  T
C2354      N2360   1.157       .  T
C2355      N2364   1.157       .  T
C2356      N2362   1.157       .  T
