geometry optimzed in LAMMPS
_audit_creation_date              2020-12-01 
_audit_creation_method            'lammps2cif' 
_symmetry_space_group_name_H-M    'P1' 
_symmetry_Int_Tables_number       1 
_symmetry_cell_setting            triclinic 
loop_ 
_symmetry_equiv_pos_as_xyz 
  x,y,z 
_cell_length_a                    25.43826035 
_cell_length_b                    61.37865743011343 
_cell_length_c                    47.34804957455519 
_cell_angle_alpha                 89.99878121102377 
_cell_angle_beta                  90.04203632716404 
_cell_angle_gamma                 91.05686890149249 
loop_ 
_atom_site_label 
_atom_site_type_symbol 
_atom_site_fract_x 
_atom_site_fract_y 
_atom_site_fract_z 
_atom_site_charge 
N1          N  0.55394434  0.73279366  0.27028479    -0.36500
N2          N  0.55235259  0.76645687  0.22703959    -0.57000
N3          N  0.43810134  0.76366395  0.22716333    -0.36500
N4          N  0.43902330  0.73185488  0.27172402    -0.57000
C5          C  0.60629988  0.73672392  0.26803340     0.27100
C6          C  0.54584438  0.72027180  0.29353019     0.27100
C7          C  0.44672009  0.78257315  0.21319825     0.27100
C8          C  0.38768129  0.76365180  0.23622480     0.27100
C9          C  0.60482741  0.76332577  0.22749173     0.35700
C10         C  0.54259889  0.77987947  0.20506369     0.35700
C11         C  0.44948180  0.71457701  0.28823298     0.35700
C12         C  0.38912266  0.72907338  0.26255915     0.35700
C13         C  0.63175420  0.72531036  0.28926296    -0.21700
C14         C  0.59370300  0.71562806  0.30580077    -0.21700
C15         C  0.40165156  0.79487920  0.21355954    -0.21700
C16         C  0.36456128  0.78309821  0.22858681    -0.21700
C17         C  0.62852948  0.77563649  0.20620019    -0.22800
C18         C  0.58909581  0.78569522  0.19170345    -0.22800
C19         C  0.40618447  0.70068462  0.28975851    -0.22800
C20         C  0.36835713  0.70952508  0.27274331    -0.22800
C21         C  0.63180856  0.75018676  0.24740761    -0.18100
C22         C  0.49685441  0.71171732  0.30297766    -0.18100
C23         C  0.36103376  0.74537905  0.24813911    -0.18100
C24         C  0.49267851  0.78803076  0.19801322    -0.18100
H25         H  0.67351853  0.72382906  0.29271661     0.14800
H26         H  0.60085242  0.70559753  0.32414680     0.14800
H27         H  0.39604002  0.81059726  0.20374948     0.14800
H28         H  0.32455921  0.78796410  0.23251628     0.14800
H29         H  0.66989780  0.77755722  0.20148496     0.13000
H30         H  0.59439595  0.79656715  0.17390255     0.13000
H31         H  0.40271384  0.68558034  0.30146363     0.13000
H32         H  0.32959439  0.70257885  0.26897935     0.13000
H33         H  0.52570397  0.73740657  0.25596344     0.26300
H34         H  0.46243969  0.75022907  0.22667629     0.26300
N35         N  0.93646906  0.73232694  0.22863849    -0.36500
N36         N  0.94027619  0.76504871  0.27139641    -0.57000
N37         N  0.05566442  0.76390468  0.26985882    -0.36500
N38         N  0.05059237  0.72920502  0.22838454    -0.57000
C39         C  0.88630427  0.73213333  0.23803430     0.27100
C40         C  0.94361988  0.71332177  0.21506376     0.27100
C41         C  0.04851435  0.77690467  0.29264442     0.27100
C42         C  0.10745292  0.75916397  0.26854478     0.27100
C43         C  0.89006911  0.76730255  0.26271649     0.35700
C44         C  0.95258890  0.78292163  0.28671718     0.35700
C45         C  0.03917977  0.71607226  0.20620560     0.35700
C46         C  0.10341668  0.73194780  0.22885856     0.35700
C47         C  0.86202684  0.71238763  0.23120161    -0.21700
C48         C  0.89803613  0.70068288  0.21608466    -0.21700
C49         C  0.09655206  0.78090078  0.30560221    -0.21700
C50         C  0.13371170  0.77045417  0.28990805    -0.21700
C51         C  0.87087050  0.78704260  0.27209509    -0.22800
C52         C  0.91012875  0.79666020  0.28796548    -0.22800
C53         C  0.08484835  0.70999304  0.19277755    -0.22800
C54         C  0.12556122  0.71950570  0.20754249    -0.22800
C55         C  0.86075143  0.75057010  0.24898023    -0.18100
C56         C  0.98832852  0.70828925  0.19918034    -0.18100
C57         C  0.13182726  0.74510525  0.24860728    -0.18100
C58         C  0.00046073  0.78630814  0.30115073    -0.18100
H59         H  0.82181168  0.70736639  0.23546186     0.14800
H60         H  0.89132642  0.68485730  0.20651327     0.14800
H61         H  0.10471741  0.79084613  0.32399078     0.14800
H62         H  0.17543973  0.77136918  0.29402955     0.14800
H63         H  0.83238690  0.79370214  0.26844255     0.13000
H64         H  0.90801832  0.81210294  0.29890553     0.13000
H65         H  0.08869811  0.69920864  0.17485341     0.13000
H66         H  0.16664558  0.71720315  0.20288533     0.13000
H67         H  0.96142879  0.74592531  0.22732418     0.26300
H68         H  0.02734683  0.75971457  0.25506949     0.26300
N69         N  0.53673962  0.23235813  0.77298720    -0.36500
N70         N  0.42238806  0.23225482  0.77138129    -0.57000
N71         N  0.42717587  0.26472188  0.72719663    -0.36500
N72         N  0.54164048  0.26480606  0.72868587    -0.57000
C73         C  0.52565399  0.21532291  0.79025100     0.27100
C74         C  0.58810475  0.23101087  0.76574091     0.27100
C75         C  0.37581174  0.26590994  0.73459443     0.27100
C76         C  0.43831059  0.28231277  0.71086176     0.27100
C77         C  0.42824343  0.21657205  0.79104402     0.35700
C78         C  0.37047422  0.23310810  0.76565837     0.35700
C79         C  0.59366793  0.26349905  0.73401724     0.35700
C80         C  0.53587351  0.28083562  0.70945361     0.35700
C81         C  0.57011995  0.20305970  0.79419931    -0.21700
C82         C  0.60919735  0.21262905  0.77824081    -0.21700
C83         C  0.35475338  0.28466189  0.72308813    -0.21700
C84         C  0.39384894  0.29472665  0.70768840    -0.21700
C85         C  0.38004122  0.20700937  0.79747351    -0.22800
C86         C  0.34368441  0.21695891  0.78066196    -0.22800
C87         C  0.62076399  0.27954831  0.71902450    -0.22800
C88         C  0.58441237  0.29003302  0.70279588    -0.22800
C89         C  0.47662507  0.21044344  0.80284257    -0.18100
C90         C  0.61738662  0.24653632  0.74960232    -0.18100
C91         C  0.48729754  0.28767277  0.69842356    -0.18100
C92         C  0.34653509  0.25006134  0.75021139    -0.18100
H93         H  0.57362635  0.18840259  0.80672291     0.14800
H94         H  0.64884778  0.20672407  0.77635705     0.14800
H95         H  0.31517540  0.29056122  0.72539446     0.14800
H96         H  0.39035473  0.30980656  0.69603787     0.14800
H97         H  0.37190296  0.19392241  0.81222322     0.13000
H98         H  0.30197281  0.21322135  0.78044863     0.13000
H99         H  0.66261386  0.28298877  0.71900724     0.13000
H100        H  0.59299357  0.30321257  0.68827555     0.13000
H101        H  0.51220577  0.24537919  0.76919600     0.26300
H102        H  0.45162513  0.25156352  0.73035192     0.26300
N103        N  0.03986801  0.23523524  0.72582289    -0.36500
N104        N  0.03794279  0.26660774  0.77147312    -0.57000
N105        N  0.92379070  0.26219076  0.77268239    -0.36500
N106        N  0.92582070  0.23034964  0.72768108    -0.57000
C107        C  0.09161547  0.23602250  0.73272213     0.27100
C108        C  0.03275217  0.21816298  0.70802300     0.27100
C109        C  0.93096082  0.27995954  0.78928526     0.27100
C110        C  0.87222977  0.26135732  0.76546857     0.27100
C111        C  0.09030701  0.26721263  0.76666897     0.35700
C112        C  0.02861065  0.28145590  0.79183534     0.35700
C113        C  0.93505885  0.21549421  0.70731768     0.35700
C114        C  0.87378809  0.22915839  0.73333614     0.35700
C115        C  0.11701750  0.21898475  0.71946040    -0.21700
C116        C  0.08017489  0.20807135  0.70342420    -0.21700
C117        C  0.88379907  0.29050982  0.79271258    -0.21700
C118        C  0.84697586  0.27905760  0.77725181    -0.21700
C119        C  0.11390433  0.28320280  0.78338975    -0.22800
C120        C  0.07517154  0.29169751  0.79992114    -0.22800
C121        C  0.88886712  0.20455711  0.70020649    -0.22800
C122        C  0.85045975  0.21266084  0.71734405    -0.22800
C123        C  0.11748951  0.25238973  0.74917026    -0.18100
C124        C  0.98482572  0.21115091  0.69566221    -0.18100
C125        C  0.84640718  0.24430391  0.75025729    -0.18100
C126        C  0.97846183  0.28669630  0.80231127    -0.18100
H127        H  0.15810061  0.21487118  0.72088466     0.14800
H128        H  0.08722172  0.19392326  0.69040989     0.14800
H129        H  0.87683784  0.30513296  0.80482356     0.14800
H130        H  0.80596267  0.28318295  0.77533160     0.14800
H131        H  0.15487482  0.28818238  0.78407612     0.13000
H132        H  0.08077431  0.30444880  0.81544906     0.13000
H133        H  0.88337665  0.19173320  0.68476830     0.13000
H134        H  0.80972231  0.20730846  0.71728437     0.13000
H135        H  0.01219310  0.24696903  0.73031141     0.26300
H136        H  0.95099387  0.25000993  0.76947180     0.26300
N137        N  0.44602948  0.73727260  0.72948499    -0.36500
N138        N  0.44881264  0.76585225  0.77790084    -0.57000
N139        N  0.56281735  0.76789376  0.77429905    -0.36500
N140        N  0.56041331  0.74065993  0.72505119    -0.57000
C141        C  0.39518051  0.74329776  0.73100282     0.27100
C142        C  0.45448025  0.73001581  0.70291244     0.27100
C143        C  0.55319443  0.78449026  0.79219897     0.27100
C144        C  0.61208141  0.77101699  0.76408222     0.27100
C145        C  0.39769289  0.75947371  0.77889059     0.35700
C146        C  0.45990691  0.77542539  0.80295617     0.35700
C147        C  0.54987922  0.72376409  0.70759306     0.35700
C148        C  0.61188383  0.73950136  0.73191373     0.35700
C149        C  0.37097217  0.73979237  0.70511391    -0.21700
C150        C  0.40850112  0.73150597  0.68732069    -0.21700
C151        C  0.59655254  0.79848664  0.79321945    -0.21700
C152        C  0.63361159  0.79008017  0.77524986    -0.21700
C153        C  0.37611127  0.76505502  0.80471159    -0.22800
C154        C  0.41560538  0.77516286  0.81999433    -0.22800
C155        C  0.59473416  0.71170011  0.70340767    -0.22800
C156        C  0.63400394  0.72157685  0.71906748    -0.22800
C157        C  0.36952231  0.75053745  0.75572614    -0.18100
C158        C  0.50161334  0.72058201  0.69331544    -0.18100
C159        C  0.63944656  0.75577618  0.74739765    -0.18100
C160        C  0.50811284  0.78613945  0.80941749    -0.18100
H161        H  0.33039025  0.74274773  0.69967324     0.14800
H162        H  0.40237521  0.72679235  0.66552507     0.14800
H163        H  0.60126714  0.81304187  0.80594666     0.14800
H164        H  0.67250876  0.79689877  0.77146512     0.14800
H165        H  0.33590920  0.76249613  0.81159575     0.13000
H166        H  0.41179913  0.78200092  0.84094703     0.13000
H167        H  0.59881055  0.69743921  0.69020014     0.13000
H168        H  0.67439358  0.71643810  0.72031722     0.13000
H169        H  0.47179779  0.73581158  0.74644217     0.26300
H170        H  0.53997399  0.75372947  0.77234143     0.26300
N171        N  0.94533078  0.74187176  0.77702198    -0.36500
N172        N  0.06001996  0.73920703  0.77790974    -0.57000
N173        N  0.06486218  0.76604119  0.72803110    -0.36500
N174        N  0.94985330  0.76723839  0.72626551    -0.57000
C175        C  0.95298802  0.72518935  0.79510663     0.27100
C176        C  0.89491757  0.74030315  0.76787285     0.27100
C177        C  0.11543470  0.75963156  0.72963021     0.27100
C178        C  0.05685221  0.77356147  0.70154841     0.27100
C179        C  0.04866294  0.73066935  0.80353814     0.35700
C180        C  0.11223300  0.74379089  0.77784847     0.35700
C181        C  0.89905627  0.77034635  0.73338518     0.35700
C182        C  0.96219258  0.78237560  0.70656757     0.35700
C183        C  0.90709961  0.71278637  0.79742840    -0.21700
C184        C  0.87055368  0.72220637  0.78000532    -0.21700
C185        C  0.14006642  0.76333390  0.70391894    -0.21700
C186        C  0.10302043  0.77205490  0.68614797    -0.21700
C187        C  0.09390331  0.72967115  0.81979426    -0.22800
C188        C  0.13423357  0.73797938  0.80349055    -0.22800
C189        C  0.87931335  0.78781931  0.71842506    -0.22800
C190        C  0.91915429  0.79524446  0.70112675    -0.22800
C191        C  0.99879458  0.72218772  0.81147456    -0.18100
C192        C  0.86954582  0.75606596  0.75102602    -0.18100
C193        C  0.01040718  0.78351508  0.69184540    -0.18100
C194        C  0.14060060  0.75189658  0.75428612    -0.18100
H195        H  0.90045195  0.69861135  0.81063711     0.14800
H196        H  0.83024564  0.71668807  0.77718434     0.14800
H197        H  0.18066377  0.76030216  0.69861929     0.14800
H198        H  0.10967074  0.77716720  0.66454622     0.14800
H199        H  0.09760145  0.72333688  0.84102117     0.13000
H200        H  0.17511054  0.73937793  0.80970481     0.13000
H201        H  0.84004508  0.79425983  0.71935846     0.13000
H202        H  0.91667244  0.80849745  0.68612997     0.13000
H203        H  0.97082365  0.75515839  0.77418122     0.26300
H204        H  0.03918253  0.76765273  0.74493158     0.26300
N205        N  0.51624578  0.86157737  0.94564158    -0.27100
N206        N  0.51494529  0.84298871  0.95976092    -0.35000
C207        C  0.51740789  0.82637711  0.94128995     0.01200
C208        C  0.52037963  0.83488004  0.91419035     0.07200
C209        C  0.51929126  0.85726747  0.91783835    -0.05900
H210        H  0.51510576  0.80935787  0.94716424     0.07900
H211        H  0.52017668  0.86955760  0.90145736     0.09100
Cu212      Cu  0.50662195  0.84089914  0.00339971     0.44200
Cu213      Cu  0.51264302  0.89201105  0.96463153     0.42000
Cu214      Cu  0.49834366  0.89192774  0.04074683     0.43900
N215        N  0.49543111  0.84317701  0.04682556    -0.34500
N216        N  0.49191079  0.86189957  0.06037924    -0.28800
C217        C  0.48581063  0.85797240  0.08812858    -0.04900
C218        C  0.48531463  0.83563098  0.09243049     0.07300
C219        C  0.49179191  0.82680900  0.06565308     0.01100
H220        H  0.48262705  0.87053637  0.10402263     0.08800
H221        H  0.49567079  0.80981189  0.06020982     0.07900
N222        N  0.50641199  0.91996675  0.01678561    -0.36000
N223        N  0.51110448  0.92012346  0.98899879    -0.28200
C224        C  0.51510325  0.94090971  0.98011987    -0.03400
C225        C  0.51249590  0.95453054  0.00344110     0.05200
C226        C  0.50747472  0.94057680  0.02633485     0.03300
H227        H  0.51910291  0.94573689  0.95824112     0.08400
H228        H  0.50552467  0.94493785  0.04842702     0.07200
N229        N  0.49249249  0.13940619  0.94282389    -0.27100
N230        N  0.47731343  0.15730483  0.95572975    -0.35000
C231        C  0.46941546  0.17284272  0.93619380     0.01200
C232        C  0.47973300  0.16423814  0.90967313     0.07200
C233        C  0.49464594  0.14302185  0.91486214    -0.05900
H234        H  0.45714577  0.18921609  0.94097695     0.07900
H235        H  0.50739451  0.13113213  0.89960269     0.09100
Cu236      Cu  0.47085115  0.15978965  0.99946505     0.44200
Cu237      Cu  0.50958017  0.11073324  0.96347835     0.42000
Cu238      Cu  0.50919930  0.11182921  0.03951447     0.43900
N239        N  0.47819268  0.15901996  0.04327175    -0.34500
N240        N  0.49443461  0.14198214  0.05766912    -0.28800
C241        C  0.49887939  0.14750915  0.08508144    -0.04900
C242        C  0.48468572  0.16915034  0.08838169     0.07300
C243        C  0.47110457  0.17568734  0.06120907     0.01100
H244        H  0.51226010  0.13652527  0.10130702     0.08800
H245        H  0.45675247  0.19130207  0.05453803     0.07900
N246        N  0.51799391  0.08350358  0.01597121    -0.36000
N247        N  0.51886873  0.08325517  0.98807423    -0.28200
C248        C  0.52241946  0.06256320  0.97907253    -0.03400
C249        C  0.52385415  0.04901374  0.00243614     0.05200
C250        C  0.52070234  0.06289595  0.02547327     0.03300
H251        H  0.52129910  0.05772610  0.95710992     0.08400
H252        H  0.51932842  0.05832159  0.04752925     0.07200
N253        N  0.48347867  0.36258347  0.56006312    -0.27100
N254        N  0.48843187  0.34360899  0.54733400    -0.35000
C255        C  0.49099288  0.32797328  0.56719701     0.01200
C256        C  0.48726181  0.33752106  0.59383394     0.07200
C257        C  0.48212793  0.35957112  0.58815391    -0.05900
H258        H  0.49485283  0.31082853  0.56252201     0.07900
H259        H  0.47590354  0.37265772  0.60284027     0.09100
Cu260      Cu  0.48763980  0.34025271  0.50340136     0.44200
Cu261      Cu  0.47844601  0.39192947  0.53902931     0.42000
Cu262      Cu  0.46648777  0.39100697  0.46374244     0.43900
N263        N  0.48034049  0.34205628  0.45947809    -0.34500
N264        N  0.47189952  0.36030370  0.44540570    -0.28800
C265        C  0.46921095  0.35580683  0.41762465    -0.04900
C266        C  0.47684443  0.33372245  0.41385371     0.07300
C267        C  0.48314244  0.32549661  0.44088718     0.01100
H268        H  0.46131766  0.36778067  0.40150994     0.08800
H269        H  0.48985146  0.30870520  0.44658988     0.07900
N270        N  0.47127747  0.41973902  0.48703299    -0.36000
N271        N  0.47627935  0.41985791  0.51479152    -0.28200
C272        C  0.47996935  0.44055243  0.52389777    -0.03400
C273        C  0.47761231  0.45428194  0.50077618     0.05200
C274        C  0.47155120  0.44047267  0.47769952     0.03300
H275        H  0.48448072  0.44526715  0.54579640     0.08400
H276        H  0.46639977  0.44498607  0.45583786     0.07200
N277        N  0.49192408  0.63966964  0.44342149    -0.27100
N278        N  0.49611057  0.65880384  0.45605218    -0.35000
C279        C  0.49822344  0.67453210  0.43629390     0.01200
C280        C  0.49525392  0.66491095  0.40976870     0.07200
C281        C  0.49102683  0.64271522  0.41527996    -0.05900
H282        H  0.50181170  0.69174360  0.44098170     0.07900
H283        H  0.48625900  0.62965032  0.40014559     0.09100
Cu284      Cu  0.49761118  0.66250959  0.49962775     0.44200
Cu285      Cu  0.48747349  0.61032886  0.46523962     0.42000
Cu286      Cu  0.49608137  0.61252054  0.54151471     0.43900
N287        N  0.49953874  0.66176949  0.54345149    -0.34500
N288        N  0.49957601  0.64369881  0.55865738    -0.28800
C289        C  0.50107958  0.64904849  0.58620409    -0.04900
C290        C  0.50257132  0.67155453  0.58850136     0.07300
C291        C  0.50084065  0.67904664  0.56091268     0.01100
H292        H  0.50107014  0.63739005  0.60334301     0.08800
H293        H  0.49876527  0.69573762  0.55384041     0.07900
N294        N  0.48902358  0.58359399  0.51886142    -0.36000
N295        N  0.48551860  0.58294048  0.49102414    -0.28200
C296        C  0.48181673  0.56204324  0.48269656    -0.03400
C297        C  0.48262738  0.54877466  0.50635621     0.05200
C298        C  0.48767896  0.56306996  0.52896739     0.03300
H299        H  0.47903010  0.55684969  0.46090304     0.08400
H300        H  0.49212681  0.55903386  0.55102995     0.07200
N301        N  0.01082363  0.86017479  0.43926124    -0.27100
N302        N  0.01218579  0.84116374  0.45233121    -0.35000
C303        C  0.01012076  0.82514574  0.43294377     0.01200
C304        C  0.00789012  0.83451533  0.40634150     0.07200
C305        C  0.00821899  0.85676862  0.41123470    -0.05900
H306        H  0.01042481  0.80793410  0.43786501     0.07900
H307        H  0.00542977  0.86959505  0.39567516     0.09100
Cu308      Cu  0.01534899  0.83790424  0.49595406     0.44200
Cu309      Cu  0.01055536  0.88993118  0.46001796     0.42000
Cu310      Cu  0.00743065  0.88818412  0.53626243     0.43900
N311        N  0.01260544  0.83904593  0.53975780    -0.34500
N312        N  0.00909024  0.85731219  0.55436879    -0.28800
C313        C  0.00735463  0.85243518  0.58204128    -0.04900
C314        C  0.00969246  0.82999811  0.58513598     0.07300
C315        C  0.01324597  0.82208441  0.55776549     0.01100
H316        H  0.00434461  0.86440258  0.59870597     0.08800
H317        H  0.01711147  0.80530423  0.55126979     0.07900
N318        N  0.00815196  0.91700094  0.51310560    -0.36000
N319        N  0.00943373  0.91756249  0.48521892    -0.28200
C320        C  0.01146741  0.93844797  0.47666010    -0.03400
C321        C  0.01135354  0.95182531  0.50026234     0.05200
C322        C  0.00937897  0.93755723  0.52302448     0.03300
H323        H  0.01330142  0.94349505  0.45478724     0.08400
H324        H  0.01065380  0.94168970  0.54521496     0.07200
N325        N  0.00647624  0.13852528  0.55713169    -0.27100
N326        N  0.99529125  0.15651897  0.54323185    -0.35000
C327        C  0.98962159  0.17284801  0.56184406     0.01200
C328        C  0.99823541  0.16489564  0.58891199     0.07200
C329        C  0.00847685  0.14296982  0.58494511    -0.05900
H330        H  0.97884748  0.18915980  0.55588447     0.07900
H331        H  0.01710382  0.13106595  0.60105965     0.09100
Cu332      Cu  0.98893817  0.15830689  0.49947826     0.44200
Cu333      Cu  0.01745067  0.10867298  0.53763350     0.42000
Cu334      Cu  0.00780038  0.10820884  0.46104866     0.43900
N335        N  0.98788928  0.15629896  0.45560566    -0.34500
N336        N  0.99450025  0.13795385  0.44154328    -0.28800
C337        C  0.99333015  0.14219039  0.41365167    -0.04900
C338        C  0.98565656  0.16432333  0.40986214     0.07300
C339        C  0.98258877  0.17270127  0.43702363     0.01100
H340        H  0.99968847  0.13012322  0.39743186     0.08800
H341        H  0.97738089  0.18955829  0.44289328     0.07900
N342        N  0.02063690  0.08058516  0.48533842    -0.36000
N343        N  0.02392578  0.08077326  0.51320402    -0.28200
C344        C  0.02874366  0.06020504  0.52250848    -0.03400
C345        C  0.02875377  0.04631950  0.49942091     0.05200
C346        C  0.02350043  0.05988179  0.47620048     0.03300
H347        H  0.03056312  0.05564911  0.54455592     0.08400
H348        H  0.01914141  0.05501627  0.45435813     0.07200
N349        N  0.97234816  0.35893306  0.05473871    -0.27100
N350        N  0.98396651  0.34140518  0.04000260    -0.35000
C351        C  0.98804357  0.32437407  0.05768622     0.01200
C352        C  0.97741100  0.33122013  0.08511641     0.07200
C353        C  0.96790103  0.35338911  0.08215561    -0.05900
H354        H  0.99889118  0.30834386  0.05069233     0.07900
H355        H  0.95839345  0.36481247  0.09867429     0.09100
Cu356      Cu  0.99070724  0.34087381  0.99617001     0.44200
Cu357      Cu  0.96613761  0.38984101  0.03692349     0.42000
Cu358      Cu  0.97099224  0.39156525  0.96029607     0.43900
N359        N  0.98495915  0.34363166  0.95243889    -0.34500
N360        N  0.97598163  0.36221738  0.93943705    -0.28800
C361        C  0.97149851  0.35861951  0.91153024    -0.04900
C362        C  0.97857660  0.33661308  0.90645547     0.07300
C363        C  0.98682488  0.32767026  0.93304839     0.01100
H364        H  0.96253478  0.37115660  0.89633971     0.08800
H365        H  0.99360519  0.31075825  0.93803979     0.07900
N366        N  0.97161188  0.41893929  0.98551336    -0.36000
N367        N  0.96909822  0.41854526  0.01339152    -0.28200
C368        C  0.96983558  0.43919601  0.02298456    -0.03400
C369        C  0.97355021  0.45319319  0.00002676     0.05200
C370        C  0.97431607  0.43970590  0.97664054     0.03300
H371        H  0.96803347  0.44368663  0.04505147     0.08400
H372        H  0.97530763  0.44454129  0.95467873     0.07200
N373        N  0.97722595  0.64161785  0.94340894    -0.27100
N374        N  0.97653318  0.65988307  0.95820705    -0.35000
C375        C  0.97964923  0.67695045  0.94044460     0.01200
C376        C  0.98288102  0.66921947  0.91299878     0.07200
C377        C  0.98087160  0.64667015  0.91578934    -0.05900
H378        H  0.98032938  0.69380244  0.94714885     0.07900
H379        H  0.98104177  0.63469811  0.89905344     0.09100
Cu380      Cu  0.97228692  0.66125062  0.00192846     0.44200
Cu381      Cu  0.97302658  0.61050899  0.96134508     0.42000
Cu382      Cu  0.96050912  0.60976919  0.03736142     0.43900
N383        N  0.96834753  0.65810862  0.04549760    -0.34500
N384        N  0.96368062  0.63910468  0.05838040    -0.28800
C385        C  0.96269643  0.64227767  0.08642724    -0.04900
C386        C  0.96666711  0.66444130  0.09161900     0.07300
C387        C  0.97058892  0.67395875  0.06506747     0.01100
H388        H  0.95934135  0.62932812  0.10185209     0.08800
H389        H  0.97619366  0.69104531  0.06017416     0.07900
N390        N  0.96154222  0.58200929  0.01301425    -0.36000
N391        N  0.96683020  0.58195020  0.98525829    -0.28200
C392        C  0.96834324  0.56111794  0.97638824    -0.03400
C393        C  0.96338905  0.54747923  0.99971260     0.05200
C394        C  0.95942188  0.56141397  0.02253734     0.03300
H395        H  0.97302155  0.55625805  0.95458650     0.08400
H396        H  0.95725086  0.55706145  0.04463903     0.07200
N397        N  0.42477842  0.23770916  0.22585335    -0.36500
N398        N  0.53919791  0.23762286  0.22778518    -0.57000
N399        N  0.53764483  0.26577958  0.27645831    -0.36500
N400        N  0.42250852  0.26469910  0.27534923    -0.57000
C401        C  0.43542801  0.22096071  0.20833627     0.27100
C402        C  0.37354637  0.23577294  0.23337850     0.27100
C403        C  0.58805495  0.25902431  0.27705868     0.27100
C404        C  0.52586902  0.27304503  0.30263780     0.27100
C405        C  0.53102707  0.22846296  0.20218078     0.35700
C406        C  0.59061629  0.24355099  0.22886498     0.35700
C407        C  0.37222871  0.26678356  0.26658238     0.35700
C408        C  0.43173424  0.28076592  0.29430098     0.35700
C409        C  0.39044990  0.20815869  0.20467381    -0.21700
C410        C  0.35154635  0.21735498  0.22076981    -0.21700
C411        C  0.60858674  0.26209341  0.30392070    -0.21700
C412        C  0.56931231  0.27093553  0.32008063    -0.21700
C413        C  0.57754176  0.22848684  0.18692411    -0.22800
C414        C  0.61520709  0.23823408  0.20374623    -0.22800
C415        C  0.34970690  0.28450719  0.27975994    -0.22800
C416        C  0.38729237  0.29322725  0.29755553    -0.22800
C417        C  0.48325734  0.21836701  0.19357929    -0.18100
C418        C  0.34552713  0.25152293  0.24897460    -0.18100
C419        C  0.47821418  0.28297071  0.31046038    -0.18100
C420        C  0.61643310  0.25117838  0.25353322    -0.18100
H421        H  0.38580590  0.19389918  0.19141117     0.14800
H422        H  0.31125187  0.21151366  0.22228830     0.14800
H423        H  0.64783354  0.25842528  0.31111392     0.14800
H424        H  0.57254342  0.27548067  0.34210770     0.14800
H425        H  0.58402383  0.22177192  0.16611231     0.13000
H426        H  0.65631834  0.24049524  0.19843667     0.13000
H427        H  0.31006102  0.29030939  0.27727884     0.13000
H428        H  0.38234134  0.30699667  0.31152195     0.13000
H429        H  0.44907124  0.25128072  0.22926877     0.26300
H430        H  0.51451333  0.26761970  0.25850977     0.26300
N431        N  0.92325445  0.23378441  0.27328765    -0.36500
N432        N  0.03755460  0.23388960  0.27180649    -0.57000
N433        N  0.03680345  0.26223491  0.22304503    -0.36500
N434        N  0.92256351  0.26351282  0.22553660    -0.57000
C435        C  0.93423525  0.22470205  0.29862296     0.27100
C436        C  0.87306227  0.24069122  0.27436310     0.27100
C437        C  0.08777491  0.26423146  0.23120348     0.27100
C438        C  0.02690187  0.27882369  0.20508524     0.27100
C439        C  0.02854354  0.21735283  0.29008597     0.35700
C440        C  0.08841734  0.23266879  0.26385787     0.35700
C441        C  0.87033852  0.25925327  0.22768637     0.35700
C442        C  0.93020116  0.27327880  0.20022182     0.35700
C443        C  0.89031675  0.22561565  0.31588606    -0.21700
C444        C  0.85167007  0.23567260  0.30054847    -0.21700
C445        C  0.11022981  0.28250899  0.21843593    -0.21700
C446        C  0.07215741  0.29144094  0.20154634    -0.21700
C447        C  0.07376220  0.20543759  0.29371117    -0.22800
C448        C  0.11159942  0.21499302  0.27681034    -0.22800
C449        C  0.84462774  0.26654080  0.20376387    -0.22800
C450        C  0.88251227  0.27546984  0.18639417    -0.22800
C451        C  0.98193219  0.21460202  0.30594048    -0.18100
C452        C  0.84520650  0.25029503  0.25180930    -0.18100
C453        C  0.97889566  0.28197999  0.19060803    -0.18100
C454        C  0.11527560  0.24896543  0.24800351    -0.18100
H455        H  0.88635648  0.21951592  0.33724112     0.14800
H456        H  0.81221873  0.23885684  0.30781798     0.14800
H457        H  0.15022122  0.28859969  0.22055716     0.14800
H458        H  0.07735607  0.30563416  0.18822953     0.14800
H459        H  0.07917899  0.19162946  0.30756261     0.13000
H460        H  0.15202322  0.20997618  0.27506548     0.13000
H461        H  0.80281707  0.26587517  0.19951237     0.13000
H462        H  0.87549729  0.28314920  0.16619949     0.13000
H463        H  0.94672759  0.23317802  0.25535408     0.26300
H464        H  0.01194011  0.24889292  0.22667695     0.26300
C465        C  0.25842569  0.25056486  0.27370862    -0.26200
C466        C  0.28637916  0.25129323  0.24808626    -0.14200
C467        C  0.25733123  0.25181041  0.22246238     0.36400
C468        C  0.20231442  0.24995015  0.22324469    -0.25600
C469        C  0.17438455  0.25008406  0.24886110    -0.14900
C470        C  0.20339284  0.25129053  0.27449098     0.37500
N471        N  0.17899004  0.25428112  0.30157256    -0.89100
H472        H  0.27976402  0.25037122  0.29352627     0.18600
H473        H  0.18092120  0.24932918  0.20344731     0.18600
N474        N  0.28164604  0.25521233  0.19537761    -0.88100
H475        H  0.18313812  0.23992586  0.31318139     0.36000
H476        H  0.13902046  0.25750910  0.29987045     0.41100
H477        H  0.32153945  0.25918711  0.19707876     0.40700
H478        H  0.27784715  0.24073946  0.18385398     0.35600
C479        C  0.70424548  0.26978966  0.25919786    -0.26200
C480        C  0.67526767  0.25029835  0.25507610    -0.14200
C481        C  0.70290630  0.23057166  0.25162723     0.36400
C482        C  0.75796071  0.23116004  0.25021612    -0.25600
C483        C  0.78663221  0.25071045  0.25349772    -0.14900
C484        C  0.75964786  0.27013076  0.25895615     0.37500
N485        N  0.78856403  0.28993654  0.26499444    -0.89100
H486        H  0.68344217  0.28483003  0.26245393     0.18600
H487        H  0.77873520  0.21610633  0.24695396     0.18600
N488        N  0.67682262  0.20961231  0.25032396    -0.88100
H489        H  0.76286601  0.30249091  0.26983036     0.36000
H490        H  0.80846607  0.29470555  0.24665180     0.41100
H491        H  0.63669160  0.21055126  0.25452351     0.40700
H492        H  0.68116558  0.20356585  0.22983259     0.35600
C493        C  0.97964293  0.32929987  0.13810815    -0.26200
C494        C  0.97742986  0.31822330  0.11201966    -0.14200
C495        C  0.97478111  0.29509305  0.11238946     0.36400
C496        C  0.97728975  0.28392507  0.13830161    -0.25600
C497        C  0.97941759  0.29509660  0.16407719    -0.14900
C498        C  0.97961662  0.31813101  0.16398918     0.37500
N499        N  0.97875592  0.33074459  0.18958377    -0.89100
H500        H  0.98118238  0.34691274  0.13867937     0.18600
H501        H  0.97586480  0.26626343  0.13851898     0.18600
N502        N  0.96774184  0.28287153  0.08675631    -0.88100
H503        H  0.01405033  0.33970305  0.19070366     0.36000
H504        H  0.97702222  0.32088529  0.20751880     0.41100
H505        H  0.93050751  0.28644243  0.07881433     0.40700
H506        H  0.96751589  0.26611929  0.09076874     0.35600
C507        C  0.99725283  0.51269445  0.98042237    -0.26200
C508        C  0.96586642  0.52332834  0.00030534    -0.14200
C509        C  0.93809149  0.51071395  0.02053678     0.36400
C510        C  0.94203114  0.48794082  0.02040756    -0.25600
C511        C  0.97283378  0.47733011  0.00027979    -0.14900
C512        C  0.00126999  0.48992418  0.98036005     0.37500
N513        N  0.03556739  0.47976484  0.96055315    -0.89100
H514        H  0.01970911  0.52210462  0.96511485     0.18600
H515        H  0.91965565  0.47849364  0.03571912     0.18600
N516        N  0.90441231  0.52080463  0.04070444    -0.88100
H517        H  0.07353012  0.48612866  0.96365665     0.36000
H518        H  0.02350508  0.48402669  0.94019768     0.41100
H519        H  0.91727185  0.51655712  0.06092162     0.40700
H520        H  0.86639278  0.51438282  0.03800734     0.35600
C521        C  0.00586392  0.19815339  0.38246154    -0.26200
C522        C  0.98491636  0.17681318  0.38291766    -0.14200
C523        C  0.96352013  0.16797005  0.35779097     0.36400
C524        C  0.96319274  0.18054874  0.33298894    -0.25600
C525        C  0.98413416  0.20183705  0.33264588    -0.14900
C526        C  0.00608641  0.21071825  0.35772844     0.37500
N527        N  0.02803149  0.23246457  0.35914138    -0.89100
H528        H  0.02277106  0.20516117  0.40148208     0.18600
H529        H  0.94620561  0.17369940  0.31387977     0.18600
N530        N  0.94068646  0.14647858  0.35746826    -0.88100
H531        H  0.06826061  0.23117351  0.36320969     0.36000
H532        H  0.02452351  0.24078479  0.34005214     0.41100
H533        H  0.96048722  0.13733999  0.34232234     0.40700
H534        H  0.90146885  0.14763009  0.35111387     0.35600
C535        C  0.04392145  0.98671649  0.47893054    -0.26200
C536        C  0.01602522  0.97604610  0.50068565    -0.14200
C537        C  0.99319162  0.98866115  0.52226960     0.36400
C538        C  0.99958267  0.01146507  0.52183449    -0.25600
C539        C  0.02678305  0.02211351  0.49987602    -0.14900
C540        C  0.04967228  0.00955389  0.47830830     0.37500
N541        N  0.07935241  0.01994906  0.45609424    -0.89100
H542        H  0.06210448  0.97718563  0.46249058     0.18600
H543        H  0.98132441  0.02104003  0.53821244     0.18600
N544        N  0.96198404  0.97844036  0.54400499    -0.88100
H545        H  0.09322389  0.00841009  0.44180615     0.36000
H546        H  0.11245481  0.02740372  0.46528646     0.41100
H547        H  0.92875434  0.97147870  0.53433177     0.40700
H548        H  0.94832202  0.99001729  0.55830705     0.35600
C549        C  0.44670433  0.30194601  0.38512272    -0.26200
C550        C  0.47693124  0.32127915  0.38697542    -0.14200
C551        C  0.50786517  0.32784812  0.36349618     0.36400
C552        C  0.50758683  0.31517258  0.33892534    -0.25600
C553        C  0.47693554  0.29602189  0.33699832    -0.14900
C554        C  0.44617485  0.28929508  0.36031949     0.37500
N555        N  0.41472790  0.26963192  0.35869278    -0.89100
H556        H  0.42320634  0.29676747  0.40307182     0.18600
H557        H  0.53163020  0.32027258  0.32113845     0.18600
N558        N  0.54162610  0.34676719  0.36428727    -0.88100
H559        H  0.39411822  0.26705346  0.37753353     0.36000
H560        H  0.44029215  0.25660124  0.35647933     0.41100
H561        H  0.56648551  0.34563718  0.38178442     0.40700
H562        H  0.51867216  0.36059639  0.36629735     0.35600
C563        C  0.51108313  0.51391589  0.48530010    -0.26200
C564        C  0.48219305  0.52455508  0.50629353    -0.14200
C565        C  0.45171218  0.51180984  0.52535124     0.36400
C566        C  0.45072603  0.48905945  0.52283508    -0.25600
C567        C  0.47911809  0.47846724  0.50159309    -0.14900
C568        C  0.51010514  0.49119260  0.48279468     0.37500
N569        N  0.54262655  0.48161975  0.46165904    -0.89100
H570        H  0.53506002  0.52337492  0.47069685     0.18600
H571        H  0.42691208  0.47955836  0.53747424     0.18600
N572        N  0.41971212  0.52136775  0.54672818    -0.88100
H573        H  0.51873648  0.47375217  0.44677964     0.36000
H574        H  0.56697457  0.47026652  0.47129377     0.41100
H575        H  0.39495620  0.53268131  0.53725398     0.40700
H576        H  0.44396671  0.52928993  0.56134780     0.35600
C577        C  0.48578160  0.17100895  0.14136033    -0.26200
C578        C  0.48448892  0.18208453  0.11526693    -0.14200
C579        C  0.48383420  0.20520242  0.11556272     0.36400
C580        C  0.48148384  0.21631703  0.14145795    -0.25600
C581        C  0.48296264  0.20518330  0.16721426    -0.14900
C582        C  0.48602310  0.18221272  0.16721191     0.37500
N583        N  0.49032402  0.16975288  0.19281860    -0.89100
H584        H  0.48682152  0.15340400  0.14192283     0.18600
H585        H  0.48029653  0.23396259  0.14165043     0.18600
N586        N  0.48751090  0.21751667  0.08982960    -0.88100
H587        H  0.45643055  0.15995325  0.19457578     0.36000
H588        H  0.49166276  0.17970938  0.21067257     0.41100
H589        H  0.52472096  0.21485370  0.08125194     0.40700
H590        H  0.48559790  0.23423338  0.09383543     0.35600
C591        C  0.54560660  0.98961353  0.98305649    -0.26200
C592        C  0.51526097  0.97873751  0.00364212    -0.21400
C593        C  0.48807328  0.99112982  0.02392988     0.36400
C594        C  0.49257785  0.01397531  0.02340327    -0.25600
C595        C  0.52265943  0.02483130  0.00275141    -0.14900
C596        C  0.54989059  0.01248959  0.98247855     0.37500
N597        N  0.58266812  0.02315110  0.96176211    -0.89100
H598        H  0.56697562  0.98021513  0.96764008     0.18600
H599        H  0.47106204  0.02339366  0.03873949     0.18600
N600        N  0.45469298  0.98060654  0.04448388    -0.88100
H601        H  0.59977256  0.01173740  0.94837767     0.36000
H602        H  0.61352391  0.03100215  0.97251934     0.41100
H603        H  0.42360251  0.97303721  0.03359531     0.40700
H604        H  0.43796582  0.99205399  0.05796345     0.35600
C605        C  0.98988252  0.78554068  0.64067764    -0.26200
C606        C  0.01194924  0.79557329  0.66462826    -0.14200
C607        C  0.03345961  0.81691924  0.66239435     0.36400
C608        C  0.03242934  0.82758746  0.63623248    -0.25600
C609        C  0.01035626  0.81761995  0.61214644    -0.14900
C610        C  0.98883561  0.79632319  0.61454168     0.37500
N611        N  0.96441703  0.78577922  0.59082328    -0.89100
H612        H  0.97289271  0.76926431  0.64237729     0.18600
H613        H  0.04948307  0.84384791  0.63477585     0.18600
N614        N  0.05646356  0.82830838  0.68605175    -0.88100
H615        H  0.92545594  0.78197168  0.59616128     0.36000
H616        H  0.98380184  0.77116741  0.58715706     0.41100
H617        H  0.05518199  0.81899661  0.70445949     0.40700
H618        H  0.03373187  0.84201695  0.68991420     0.35600
C619        C  0.01603838  0.68820076  0.83816547    -0.26200
C620        C  0.99435692  0.70902126  0.83779619    -0.14200
C621        C  0.96910771  0.71687585  0.86233610     0.36400
C622        C  0.96551255  0.70348402  0.88630421    -0.25600
C623        C  0.98703999  0.68253399  0.88672758    -0.14900
C624        C  0.01300953  0.67501042  0.86234140     0.37500
N625        N  0.03788368  0.65428738  0.86217194    -0.89100
H626        H  0.03588598  0.68220533  0.81954594     0.18600
H627        H  0.94540689  0.70959110  0.90475627     0.18600
N628        N  0.94690592  0.73824807  0.86385772    -0.88100
H629        H  0.07777973  0.65683573  0.85774281     0.36000
H630        H  0.02145031  0.64498681  0.84578044     0.41100
H631        H  0.95253304  0.74703419  0.84522262     0.40700
H632        H  0.96718362  0.74691834  0.87958674     0.35600
C633        C  0.22506913  0.73182351  0.75436506    -0.26200
C634        C  0.19935204  0.75186303  0.75520587    -0.14200
C635        C  0.22985245  0.77137108  0.75697333     0.36400
C636        C  0.28487185  0.77029370  0.75722697    -0.25600
C637        C  0.31069638  0.75028051  0.75638516    -0.14900
C638        C  0.28015071  0.73070445  0.75536237     0.37500
N639        N  0.30329966  0.70948598  0.75542997    -0.89100
H640        H  0.20195180  0.71683654  0.75318807     0.18600
H641        H  0.30787357  0.78532105  0.75816512     0.18600
N642        N  0.20666652  0.79249638  0.75915131    -0.88100
H643        H  0.28966766  0.70125795  0.77340383     0.36000
H644        H  0.34408295  0.71044366  0.75747810     0.41100
H645        H  0.16576962  0.79152976  0.76042341     0.40700
H646        H  0.21598510  0.80110854  0.74071727     0.35600
C647        C  0.72471734  0.75659722  0.77360288    -0.26200
C648        C  0.69854237  0.75643922  0.74743674    -0.14200
C649        C  0.72924043  0.75694415  0.72239769     0.36400
C650        C  0.78416633  0.75580865  0.72435370    -0.25600
C651        C  0.81040792  0.75668000  0.75053557    -0.14900
C652        C  0.77965833  0.75788501  0.77550440     0.37500
N653        N  0.80220971  0.76132946  0.80303606    -0.89100
H654        H  0.70201594  0.75652744  0.79296956     0.18600
H655        H  0.80678476  0.75503008  0.70500584     0.18600
N656        N  0.70675325  0.75961983  0.69476862    -0.88100
H657        H  0.79673836  0.74701359  0.81472514     0.36000
H658        H  0.84237885  0.76491892  0.80215137     0.41100
H659        H  0.66671864  0.76291183  0.69560812     0.40700
H660        H  0.71146539  0.74509330  0.68360841     0.35600
C661        C  0.54149244  0.79135549  0.85820580    -0.26200
C662        C  0.51215696  0.79951514  0.83557603    -0.14200
C663        C  0.48759505  0.81991249  0.83837874     0.36400
C664        C  0.49155582  0.83116828  0.86408771    -0.25600
C665        C  0.51971816  0.82274913  0.88704634    -0.14900
C666        C  0.54586548  0.80279343  0.88384987     0.37500
N667        N  0.57730764  0.79434535  0.90643717    -0.89100
H668        H  0.56095676  0.77590369  0.85580113     0.18600
H669        H  0.47152169  0.84650317  0.86624318     0.18600
N670        N  0.45816283  0.82963889  0.81585134    -0.88100
H671        H  0.60878319  0.80526438  0.90966116     0.36000
H672        H  0.59363244  0.77948228  0.90068290     0.41100
H673        H  0.45860516  0.82017879  0.79756424     0.40700
H674        H  0.47693240  0.84440004  0.81066403     0.35600
C675        C  0.53429097  0.71454285  0.64431648    -0.26200
C676        C  0.50130100  0.70779473  0.66651341    -0.14200
C677        C  0.46956504  0.68887831  0.66319344     0.36400
C678        C  0.47033970  0.67751237  0.63739576    -0.25600
C679        C  0.50274786  0.68447014  0.61498704    -0.14900
C680        C  0.53589282  0.70302239  0.61887461     0.37500
N681        N  0.57354003  0.70996336  0.59811121    -0.89100
H682        H  0.55950267  0.72883514  0.64692719     0.18600
H683        H  0.44546621  0.66313579  0.63475193     0.18600
N684        N  0.43701574  0.68124831  0.68608369    -0.88100
H685        H  0.55381309  0.71545910  0.58025315     0.36000
H686        H  0.59677124  0.69672719  0.59267964     0.41100
H687        H  0.46185490  0.67684178  0.70264828     0.40700
H688        H  0.41600873  0.66716112  0.68021668     0.35600
C689        C  0.00035217  0.21027253  0.64407007    -0.26200
C690        C  0.98773375  0.19874372  0.66873422    -0.14200
C691        C  0.98059446  0.17601213  0.66746587     0.36400
C692        C  0.98404164  0.16527360  0.64131472    -0.25600
C693        C  0.99565748  0.17684774  0.61629618    -0.14900
C694        C  0.00505339  0.19959105  0.61805174     0.37500
N695        N  0.02124029  0.21190592  0.59379502    -0.89100
H696        H  0.00735734  0.22773248  0.64511486     0.18600
H697        H  0.97721256  0.14782043  0.64067612     0.18600
N698        N  0.97033683  0.16382337  0.69271044    -0.88100
H699        H  0.05771492  0.21927353  0.59821251     0.36000
H700        H  0.99406058  0.22423683  0.59056151     0.41100
H701        H  0.00006687  0.15242122  0.69501343     0.40700
H702        H  0.93471810  0.15529235  0.69008502     0.35600
C703        C  0.98698857  0.32222044  0.82791462    -0.26200
C704        C  0.97513142  0.29982644  0.82866212    -0.14200
C705        C  0.96160562  0.28991757  0.85472225     0.36400
C706        C  0.96206088  0.30247188  0.87935410    -0.25600
C707        C  0.97618737  0.32469664  0.87904292    -0.14900
C708        C  0.98859105  0.33472935  0.85284591     0.37500
N709        N  0.00448386  0.35729189  0.85158540    -0.89100
H710        H  0.99688977  0.32975322  0.80786388     0.18600
H711        H  0.95151328  0.29455397  0.89903917     0.18600
N712        N  0.94855034  0.26708648  0.85729892    -0.88100
H713        H  0.01141866  0.36211059  0.83070942     0.36000
H714        H  0.04039640  0.35890091  0.86219547     0.41100
H715        H  0.95176407  0.25876960  0.83820686     0.40700
H716        H  0.90916765  0.26578059  0.86349279     0.35600
C717        C  0.26068120  0.25241624  0.72486602    -0.26200
C718        C  0.28780460  0.25171642  0.75071650    -0.14200
C719        C  0.25845146  0.25280114  0.77614209     0.36400
C720        C  0.20355278  0.25149813  0.77492211    -0.25600
C721        C  0.17647803  0.25310514  0.74912557    -0.14900
C722        C  0.20613753  0.25480295  0.72381548     0.37500
N723        N  0.18276984  0.25948285  0.69686729    -0.89100
H724        H  0.28247810  0.25218796  0.70520831     0.18600
H725        H  0.18174061  0.25035295  0.79453258     0.18600
N726        N  0.28247570  0.25617373  0.80334446    -0.88100
H727        H  0.18594356  0.24566077  0.68412614     0.36000
H728        H  0.14304150  0.26316347  0.69860618     0.41100
H729        H  0.32286264  0.25919005  0.80183329     0.40700
H730        H  0.27635284  0.24210913  0.81543862     0.35600
C731        C  0.70342471  0.24485787  0.77490361    -0.26200
C732        C  0.67609359  0.24480005  0.74908614    -0.14200
C733        C  0.70522710  0.24314104  0.72365619     0.36400
C734        C  0.76014792  0.24427971  0.72471826    -0.25600
C735        C  0.78744577  0.24346179  0.75051469    -0.14900
C736        C  0.75804719  0.24268848  0.77597855     0.37500
N737        N  0.78178744  0.23925894  0.80316353    -0.89100
H738        H  0.68176538  0.24567079  0.79457191     0.18600
H739        H  0.78179223  0.24487855  0.70502243     0.18600
N740        N  0.68090405  0.23953251  0.69658130    -0.88100
H741        H  0.77849085  0.25361247  0.81486645     0.36000
H742        H  0.82158051  0.23565282  0.80159339     0.41100
H743        H  0.64044025  0.23676224  0.69823577     0.40700
H744        H  0.68729831  0.25343269  0.68421241     0.35600
C745        C  0.50359517  0.32280822  0.67230452    -0.26200
C746        C  0.48678466  0.30097166  0.67210695    -0.14200
C747        C  0.46825014  0.29158533  0.64677094     0.36400
C748        C  0.46777182  0.30410801  0.62196887    -0.25600
C749        C  0.48583045  0.32591510  0.62164857    -0.14900
C750        C  0.50359899  0.33533757  0.64753728     0.37500
N751        N  0.52319390  0.35727281  0.64959786    -0.89100
H752        H  0.51709580  0.33014405  0.69189443     0.18600
H753        H  0.45308559  0.29665962  0.60273305     0.18600
N754        N  0.44990040  0.26927872  0.64640926    -0.88100
H755        H  0.49205405  0.36788859  0.64694128     0.36000
H756        H  0.55195941  0.35995166  0.63416046     0.41100
H757        H  0.48193742  0.25946282  0.65102943     0.40700
H758        H  0.43694922  0.26484356  0.62621088     0.35600
C759        C  0.46529077  0.17622356  0.83092547    -0.26200
C760        C  0.47660121  0.19864174  0.83024335    -0.14200
C761        C  0.48853721  0.20975671  0.85573948     0.36400
C762        C  0.48922130  0.19812618  0.88114853    -0.25600
C763        C  0.47780237  0.17568253  0.88202255    -0.14900
C764        C  0.46485112  0.16466530  0.85660002     0.37500
N765        N  0.44998379  0.14196786  0.85694519    -0.89100
H766        H  0.45601285  0.16783109  0.81136192     0.18600
H767        H  0.49916454  0.20680187  0.90040724     0.18600
N768        N  0.49938488  0.23284345  0.85683516    -0.88100
H769        H  0.44181946  0.13638852  0.83650689     0.36000
H770        H  0.41492215  0.14045738  0.86833709     0.41100
H771        H  0.49544773  0.24031775  0.83718571     0.40700
H772        H  0.53858087  0.23505795  0.86301808     0.35600
C773        C  0.97557476  0.80337602  0.37697339    -0.26200
C774        C  0.00444919  0.82304238  0.37881123    -0.14200
C775        C  0.03029376  0.83115815  0.35449695     0.36400
C776        C  0.02704816  0.81951558  0.32900055    -0.25600
C777        C  0.99942621  0.79957956  0.32748094    -0.14900
C778        C  0.97277019  0.79166889  0.35156425     0.37500
N779        N  0.94353660  0.77151293  0.35034795    -0.89100
H780        H  0.95509126  0.79701176  0.39534890     0.18600
H781        H  0.04761218  0.82568416  0.31054005     0.18600
N782        N  0.06185835  0.85067956  0.35586137    -0.88100
H783        H  0.90457458  0.77463924  0.35579208     0.36000
H784        H  0.95888848  0.76098586  0.36549500     0.41100
H785        H  0.04738321  0.86165537  0.34100562     0.40700
H786        H  0.10024697  0.84684195  0.35005997     0.35600
C787        C  0.95788820  0.70681551  0.14984482    -0.26200
C788        C  0.98024312  0.69580056  0.17269099    -0.14200
C789        C  0.99499657  0.67386385  0.16945615     0.36400
C790        C  0.98965225  0.66394151  0.14290548    -0.25600
C791        C  0.96917153  0.67527056  0.11962078    -0.14900
C792        C  0.95164688  0.69672211  0.12353477     0.37500
N793        N  0.92627311  0.70818883  0.10115366    -0.89100
H794        H  0.94537166  0.72348953  0.15245374     0.18600
H795        H  0.00247454  0.64732334  0.14046438     0.18600
N796        N  0.01491518  0.66117493  0.19249702    -0.88100
H797        H  0.94761257  0.72261614  0.09735925     0.36000
H798        H  0.88871130  0.71235065  0.10801376     0.41100
H799        H  0.01529594  0.66992956  0.21138752     0.40700
H800        H  0.05391624  0.65746173  0.18785921     0.35600
C801        C  0.27433971  0.73922916  0.27221307    -0.26200
C802        C  0.30208563  0.74417943  0.24726028    -0.14200
C803        C  0.27284746  0.74828038  0.22230987     0.36400
C804        C  0.21820297  0.75012833  0.22405096    -0.25600
C805        C  0.19060158  0.74402043  0.24858816    -0.14900
C806        C  0.21957222  0.73705223  0.27242749     0.37500
N807        N  0.19521970  0.72724425  0.29685414    -0.89100
H808        H  0.29543852  0.73610201  0.29162783     0.18600
H809        H  0.19669926  0.75505176  0.20541024     0.18600
N810        N  0.29645951  0.74957145  0.19475249    -0.88100
H811        H  0.20166192  0.73751142  0.31417236     0.36000
H812        H  0.15472099  0.72507959  0.29429177     0.41100
H813        H  0.33585418  0.74516035  0.19498377     0.40700
H814        H  0.29410923  0.76563317  0.18759524     0.35600
C815        C  0.71840120  0.74457185  0.22339010    -0.26200
C816        C  0.69053983  0.75110247  0.24741202    -0.14200
C817        C  0.71879519  0.75876663  0.27109446     0.36400
C818        C  0.77355825  0.75725899  0.27164356    -0.25600
C819        C  0.80192919  0.75163393  0.24730330    -0.14900
C820        C  0.77329674  0.74650538  0.22223859     0.37500
N821        N  0.79784893  0.74427111  0.19506370    -0.89100
H822        H  0.69708930  0.73920193  0.20474003     0.18600
H823        H  0.79396719  0.76105521  0.29115956     0.18600
N824        N  0.69190470  0.76805797  0.29466549    -0.88100
H825        H  0.79466495  0.72795067  0.18888345     0.36000
H826        H  0.83750425  0.74888352  0.19542338     0.41100
H827        H  0.70593380  0.78405116  0.29725227     0.40700
H828        H  0.70179311  0.75933749  0.31281926     0.35600
C829        C  0.46518441  0.79160235  0.14825163    -0.26200
C830        C  0.48718903  0.80162698  0.17220256    -0.14200
C831        C  0.50522187  0.82352626  0.17045407     0.36400
C832        C  0.50316277  0.83437574  0.14437902    -0.25600
C833        C  0.48327638  0.82398623  0.11998964    -0.14900
C834        C  0.46274445  0.80255090  0.12233353     0.37500
N835        N  0.43855045  0.79187929  0.09864383    -0.89100
H836        H  0.45043609  0.77494714  0.14960174     0.18600
H837        H  0.51846521  0.85092868  0.14315235     0.18600
N838        N  0.52559458  0.83522965  0.19450623    -0.88100
H839        H  0.39987823  0.78767504  0.10414292     0.36000
H840        H  0.45868860  0.77748529  0.09476150     0.41100
H841        H  0.52351261  0.82585955  0.21286794     0.40700
H842        H  0.56539125  0.83865980  0.19072980     0.35600
C843        C  0.51208536  0.67811305  0.33126990    -0.26200
C844        C  0.49461541  0.69961278  0.33022563    -0.14200
C845        C  0.47641137  0.70955915  0.35531060     0.36400
C846        C  0.47656398  0.69777270  0.38065513    -0.25600
C847        C  0.49471795  0.67630280  0.38193778    -0.14900
C848        C  0.51275005  0.66646947  0.35682000     0.37500
N849        N  0.53355278  0.64496950  0.35716587    -0.89100
H850        H  0.52632916  0.67047702  0.31218112     0.18600
H851        H  0.46225480  0.70562631  0.39955739     0.18600
N852        N  0.45875497  0.73169299  0.35616758    -0.88100
H853        H  0.57225604  0.64585336  0.34976673     0.36000
H854        H  0.51154204  0.63534749  0.34310108     0.41100
H855        H  0.46214520  0.73944244  0.33663957     0.40700
H856        H  0.41877610  0.73125651  0.36128484     0.35600
loop_ 
_geom_bond_atom_site_label_1 
_geom_bond_atom_site_label_2 
_geom_bond_distance 
_geom_bond_site_symmetry_2 
_ccdc_geom_bond_type 
N1            C6   1.356       .  A
N1            C5   1.353       .  A
N1           H33   1.031       .  S
N2            C9   1.352       .  A
N2           C10   1.353       .  A
N3            C8   1.353       .  A
N3            C7   1.350       .  A
N3           H34   1.041       .  S
N4           C11   1.348       .  A
N4           C12   1.349       .  A
C5           C13   1.391       .  A
C5           C21   1.428       .  A
C6           C22   1.416       .  A
C6           C14   1.383       .  A
C7           C15   1.385       .  A
C7           C24   1.408       .  A
C8           C23   1.417       .  A
C8           C16   1.388       .  A
C9           C21   1.425       .  A
C9           C17   1.391       .  A
C10          C24   1.413       .  A
C10          C18   1.383       .  A
C11          C19   1.382       .  A
C11          C22   1.406       .  A
C12          C20   1.389       .  A
C12          C23   1.416       .  A
C13          C14   1.372       .  A
C13          H25   1.080       .  S
C14          H26   1.082       .  S
C15          C16   1.377       .  A
C15          H27   1.083       .  S
C16          H28   1.082       .  S
C17          C18   1.371       .  A
C17          H29   1.080       .  S
C18          H30   1.082       .  S
C19          C20   1.374       .  A
C19          H31   1.082       .  S
C20          H32   1.082       .  S
C21         C816   1.494       .  S
C22         C844   1.489       .  S
C23         C802   1.501       .  S
C24         C830   1.488       .  S
N35          C40   1.347       .  A
N35          C39   1.352       .  A
N35          H67   1.041       .  S
N36          C43   1.351       .  A
N36          C44   1.347       .  A
N37          C42   1.356       .  A
N37          C41   1.356       .  A
N37          H68   1.033       .  S
N38          C45   1.352       .  A
N38          C46   1.351       .  A
C39          C47   1.388       .  A
C39          C55   1.414       .  A
C40          C56   1.403       .  A
C40          C48   1.384       .  A
C41          C49   1.385       .  A
C41          C58   1.420       .  A
C42          C57   1.429       .  A
C42          C50   1.390       .  A
C43          C55   1.416       .  A
C43          C51   1.388       .  A
C44          C58   1.408   1_655  A
C44          C52   1.384       .  A
C45          C53   1.382       .  A
C45          C56   1.410   1_455  A
C46          C54   1.391       .  A
C46          C57   1.424       .  A
C47          C48   1.376       .  A
C47          H59   1.082       .  S
C48          H60   1.083       .  S
C49          C50   1.371       .  A
C49          H61   1.081       .  S
C50          H62   1.080       .  S
C51          C52   1.374       .  A
C51          H63   1.082       .  S
C52          H64   1.082       .  S
C53          C54   1.371       .  A
C53          H65   1.082       .  S
C54          H66   1.080       .  S
C55         C819   1.501       .  S
C56         C788   1.482       .  S
C57         C805   1.498       .  S
C58         C777   1.490   1_455  S
N69          C74   1.355       .  A
N69          C73   1.353       .  A
N69         H101   1.039       .  S
N70          C77   1.349       .  A
N70          C78   1.350       .  A
N71          C76   1.354       .  A
N71          C75   1.356       .  A
N71         H102   1.039       .  S
N72          C79   1.351       .  A
N72          C80   1.350       .  A
C73          C81   1.383       .  A
C73          C89   1.410       .  A
C74          C90   1.422       .  A
C74          C82   1.390       .  A
C75          C83   1.390       .  A
C75          C92   1.422       .  A
C76          C91   1.412       .  A
C76          C84   1.383       .  A
C77          C89   1.409       .  A
C77          C85   1.384       .  A
C78          C92   1.418       .  A
C78          C86   1.388       .  A
C79          C87   1.387       .  A
C79          C90   1.420       .  A
C80          C88   1.385       .  A
C80          C91   1.412       .  A
C81          C82   1.372       .  A
C81          H93   1.082       .  S
C82          H94   1.082       .  S
C83          C84   1.371       .  A
C83          H95   1.082       .  S
C84          H96   1.083       .  S
C85          C86   1.372       .  A
C85          H97   1.082       .  S
C86          H98   1.081       .  S
C87          C88   1.371       .  A
C87          H99   1.082       .  S
C88         H100   1.081       .  S
C89         C760   1.486       .  S
C90         C732   1.499       .  S
C91         C746   1.490       .  S
C92         C718   1.500       .  S
N103        C108   1.354       .  A
N103        C107   1.356       .  A
N103        H135   1.038       .  S
N104        C111   1.351       .  A
N104        C112   1.351       .  A
N105        C110   1.355       .  A
N105        C109   1.354       .  A
N105        H136   1.039       .  S
N106        C113   1.351       .  A
N106        C114   1.351       .  A
C107        C115   1.390       .  A
C107        C123   1.423       .  A
C108        C124   1.412   1_455  A
C108        C116   1.384       .  A
C109        C117   1.383       .  A
C109        C126   1.411       .  A
C110        C125   1.421       .  A
C110        C118   1.389       .  A
C111        C123   1.420       .  A
C111        C119   1.389       .  A
C112        C126   1.412   1_455  A
C112        C120   1.384       .  A
C113        C121   1.384       .  A
C113        C124   1.411       .  A
C114        C122   1.389       .  A
C114        C125   1.420       .  A
C115        C116   1.371       .  A
C115        H127   1.082       .  S
C116        H128   1.083       .  S
C117        C118   1.372       .  A
C117        H129   1.083       .  S
C118        H130   1.082       .  S
C119        C120   1.369       .  A
C119        H131   1.081       .  S
C120        H132   1.081       .  S
C121        C122   1.371       .  A
C121        H133   1.081       .  S
C122        H134   1.081       .  S
C123        C721   1.500       .  S
C124        C690   1.488       .  S
C125        C735   1.500       .  S
C126        C704   1.489       .  S
N137        C142   1.353       .  A
N137        C141   1.354       .  A
N137        H169   1.041       .  S
N138        C145   1.352       .  A
N138        C146   1.351       .  A
N139        C144   1.354       .  A
N139        C143   1.351       .  A
N139        H170   1.041       .  S
N140        C147   1.349       .  A
N140        C148   1.352       .  A
C141        C149   1.386       .  A
C141        C157   1.416       .  A
C142        C158   1.416       .  A
C142        C150   1.387       .  A
C143        C151   1.386       .  A
C143        C160   1.413       .  A
C144        C159   1.417       .  A
C144        C152   1.387       .  A
C145        C157   1.415       .  A
C145        C153   1.386       .  A
C146        C160   1.414       .  A
C146        C154   1.386       .  A
C147        C155   1.386       .  A
C147        C158   1.412       .  A
C148        C156   1.386       .  A
C148        C159   1.414       .  A
C149        C150   1.378       .  A
C149        H161   1.082       .  S
C150        H162   1.082       .  S
C151        C152   1.378       .  A
C151        H163   1.082       .  S
C152        H164   1.082       .  S
C153        C154   1.376       .  A
C153        H165   1.082       .  S
C154        H166   1.082       .  S
C155        C156   1.375       .  A
C155        H167   1.082       .  S
C156        H168   1.082       .  S
C157        C637   1.497       .  S
C158        C676   1.492       .  S
C159        C648   1.503       .  S
C160        C662   1.488       .  S
N171        C176   1.355       .  A
N171        C175   1.352       .  A
N171        H203   1.041       .  S
N172        C179   1.351       .  A
N172        C180   1.353       .  A
N173        C178   1.353       .  A
N173        C177   1.354       .  A
N173        H204   1.039       .  S
N174        C181   1.353       .  A
N174        C182   1.350       .  A
C175        C183   1.386       .  A
C175        C191   1.414       .  A
C176        C192   1.418       .  A
C176        C184   1.387       .  A
C177        C185   1.386       .  A
C177        C194   1.417       .  A
C178        C193   1.416       .  A
C178        C186   1.387       .  A
C179        C191   1.413   1_455  A
C179        C187   1.386       .  A
C180        C194   1.414       .  A
C180        C188   1.386       .  A
C181        C189   1.387       .  A
C181        C192   1.416       .  A
C182        C190   1.386       .  A
C182        C193   1.412   1_655  A
C183        C184   1.378       .  A
C183        H195   1.082       .  S
C184        H196   1.082       .  S
C185        C186   1.378       .  A
C185        H197   1.082       .  S
C186        H198   1.082       .  S
C187        C188   1.375       .  A
C187        H199   1.082       .  S
C188        H200   1.082       .  S
C189        C190   1.375       .  A
C189        H201   1.082       .  S
C190        H202   1.082       .  S
C191        C620   1.489       .  S
C192        C651   1.506       .  S
C193        C606   1.486       .  S
C194        C634   1.495       .  S
N205        C209   1.345       .  A
N205        N206   1.322       .  A
N205       Cu213   2.077       .  S
N206        C207   1.346       .  A
N206       Cu212   2.081   1_556  S
C207        C208   1.387       .  A
C207        H210   1.082       .  S
C208        C209   1.386       .  A
C208        C665   1.485       .  S
C209        H211   1.082       .  S
Cu212       N215   2.081       .  S
Cu213       N223   2.077       .  S
Cu214       N216   2.068       .  S
Cu214       N222   2.068       .  S
N215        C219   1.345       .  A
N215        N216   1.321       .  A
N216        C217   1.344       .  A
C217        C218   1.386       .  A
C217        H220   1.082       .  S
C218        C219   1.390       .  A
C218        C833   1.488       .  S
C219        H221   1.081       .  S
N222        C226   1.343       .  A
N222        N223   1.321   1_554  A
N223        C224   1.345       .  A
C224        C225   1.387   1_556  A
C224        H227   1.082       .  S
C225        C226   1.386       .  A
C225        C592   1.486       .  S
C226        H228   1.081       .  S
N229        C233   1.343       .  A
N229        N230   1.321       .  A
N229       Cu237   2.066       .  S
N230        C231   1.346       .  A
N230       Cu236   2.083       .  S
C231        C232   1.389       .  A
C231        H234   1.082       .  S
C232        C233   1.385       .  A
C232        C763   1.487       .  S
C233        H235   1.081       .  S
Cu236       N239   2.083   1_556  S
Cu237       N247   2.067       .  S
Cu238       N240   2.081       .  S
Cu238       N246   2.081       .  S
N239        C243   1.344       .  A
N239        N240   1.321       .  A
N240        C241   1.346       .  A
C241        C242   1.392       .  A
C241        H244   1.081       .  S
C242        C243   1.393       .  A
C242        C578   1.500       .  S
C243        H245   1.079       .  S
N246        C250   1.345       .  A
N246        N247   1.321   1_554  A
N247        C248   1.344       .  A
C248        C249   1.385   1_556  A
C248        H251   1.082       .  S
C249        C250   1.387       .  A
C249        C595   1.484       .  S
C250        H252   1.082       .  S
N253        C257   1.343       .  A
N253        N254   1.319       .  A
N253       Cu261   2.064       .  S
N254        C255   1.346       .  A
N254       Cu260   2.090       .  S
C255        C256   1.395       .  A
C255        H258   1.082       .  S
C256        C257   1.388       .  A
C256        C749   1.497       .  S
C257        H259   1.076       .  S
Cu260       N263   2.091       .  S
Cu261       N271   2.064       .  S
Cu262       N264   2.082       .  S
Cu262       N270   2.082       .  S
N263        C267   1.348       .  A
N263        N264   1.324       .  A
N264        C265   1.345       .  A
C265        C266   1.384       .  A
C265        H268   1.081       .  S
C266        C267   1.386       .  A
C266        C550   1.484       .  S
C267        H269   1.082       .  S
N270        C274   1.347       .  A
N270        N271   1.320       .  A
N271        C272   1.343       .  A
C272        C273   1.383       .  A
C272        H275   1.082       .  S
C273        C274   1.390       .  A
C273        C567   1.485       .  S
C274        H276   1.080       .  S
N277        C281   1.346       .  A
N277        N278   1.320       .  A
N277       Cu285   2.077       .  S
N278        C279   1.345       .  A
N278       Cu284   2.076       .  S
C279        C280   1.389       .  A
C279        H282   1.082       .  S
C280        C281   1.389       .  A
C280        C847   1.492       .  S
C281        H283   1.081       .  S
Cu284       N287   2.076       .  S
Cu285       N295   2.077       .  S
Cu286       N288   2.079       .  S
Cu286       N294   2.079       .  S
N287        C291   1.345       .  A
N287        N288   1.322       .  A
N288        C289   1.345       .  A
C289        C290   1.385       .  A
C289        H292   1.082       .  S
C290        C291   1.386       .  A
C290        C679   1.484       .  S
C291        H293   1.080       .  S
N294        C298   1.347       .  A
N294        N295   1.322       .  A
N295        C296   1.344       .  A
C296        C297   1.385       .  A
C296        H299   1.082       .  S
C297        C298   1.389       .  A
C297        C564   1.486       .  S
C298        H300   1.080       .  S
N301        C305   1.345       .  A
N301        N302   1.322       .  A
N301       Cu309   2.074       .  S
N302        C303   1.345       .  A
N302       Cu308   2.077       .  S
C303        C304   1.386       .  A
C303        H306   1.082       .  S
C304        C305   1.385       .  A
C304        C774   1.483       .  S
C305        H307   1.081       .  S
Cu308       N311   2.076       .  S
Cu309       N319   2.074       .  S
Cu310       N312   2.081       .  S
Cu310       N318   2.081       .  S
N311        C315   1.346       .  A
N311        N312   1.322       .  A
N312        C313   1.345       .  A
C313        C314   1.387       .  A
C313        H316   1.082       .  S
C314        C315   1.388       .  A
C314        C609   1.488       .  S
C315        H317   1.081       .  S
N318        C322   1.346       .  A
N318        N319   1.321       .  A
N319        C320   1.345       .  A
C320        C321   1.387       .  A
C320        H323   1.082       .  S
C321        C322   1.389       .  A
C321        C536   1.489       .  S
C322        H324   1.081       .  S
N325        C329   1.346       .  A
N325        N326   1.321   1_455  A
N325       Cu333   2.075       .  S
N326        C327   1.344       .  A
N326       Cu332   2.081       .  S
C327        C328   1.390       .  A
C327        H330   1.080       .  S
C328        C329   1.388   1_655  A
C328        C693   1.492       .  S
C329        H331   1.082       .  S
Cu332       N335   2.081       .  S
Cu333       N343   2.076       .  S
Cu334       N336   2.079   1_455  S
Cu334       N342   2.079       .  S
N335        C339   1.346       .  A
N335        N336   1.322       .  A
N336        C337   1.346       .  A
C337        C338   1.388       .  A
C337        H340   1.081       .  S
C338        C339   1.388       .  A
C338        C522   1.489       .  S
C339        H341   1.082       .  S
N342        C346   1.346       .  A
N342        N343   1.322       .  A
N343        C344   1.345       .  A
C344        C345   1.386       .  A
C344        H347   1.082       .  S
C345        C346   1.387       .  A
C345        C539   1.486       .  S
C346        H348   1.082       .  S
N349        C353   1.346       .  A
N349        N350   1.320       .  A
N349       Cu357   2.085       .  S
N350        C351   1.345       .  A
N350       Cu356   2.083   1_554  S
C351        C352   1.393       .  A
C351        H354   1.079       .  S
C352        C353   1.393       .  A
C352        C494   1.503       .  S
C353        H355   1.081       .  S
Cu356       N359   2.083       .  S
Cu357       N367   2.085       .  S
Cu358       N360   2.060       .  S
Cu358       N366   2.061       .  S
N359        C363   1.344       .  A
N359        N360   1.320       .  A
N360        C361   1.344       .  A
C361        C362   1.387       .  A
C361        H364   1.081       .  S
C362        C363   1.391       .  A
C362        C707   1.490       .  S
C363        H365   1.082       .  S
N366        C370   1.343       .  A
N366        N367   1.322   1_556  A
N367        C368   1.346       .  A
C368        C369   1.388       .  A
C368        H371   1.082       .  S
C369        C370   1.383   1_554  A
C369        C511   1.482       .  S
C370        H372   1.082       .  S
N373        C377   1.347       .  A
N373        N374   1.322       .  A
N373       Cu381   2.091       .  S
N374        C375   1.345       .  A
N374       Cu380   2.075   1_556  S
C375        C376   1.386       .  A
C375        H378   1.082       .  S
C376        C377   1.390       .  A
C376        C623   1.491       .  S
C377        H379   1.081       .  S
Cu380       N383   2.074       .  S
Cu381       N391   2.090       .  S
Cu382       N384   2.058       .  S
Cu382       N390   2.058       .  S
N383        C387   1.344       .  A
N383        N384   1.320       .  A
N384        C385   1.342       .  A
C385        C386   1.384       .  A
C385        H388   1.082       .  S
C386        C387   1.389       .  A
C386        C791   1.484       .  S
C387        H389   1.081       .  S
N390        C394   1.342       .  A
N390        N391   1.321   1_554  A
N391        C392   1.347       .  A
C392        C393   1.390       .  A
C392        H395   1.082       .  S
C393        C394   1.383   1_556  A
C393        C508   1.485   1_556  S
C394        H396   1.081       .  S
N397        C402   1.354       .  A
N397        C401   1.352       .  A
N397        H429   1.041       .  S
N398        C405   1.351       .  A
N398        C406   1.352       .  A
N399        C404   1.353       .  A
N399        C403   1.355       .  A
N399        H430   1.041       .  S
N400        C407   1.353       .  A
N400        C408   1.351       .  A
C401        C409   1.387       .  A
C401        C417   1.415       .  A
C402        C418   1.419       .  A
C402        C410   1.387       .  A
C403        C411   1.386       .  A
C403        C420   1.417       .  A
C404        C419   1.416       .  A
C404        C412   1.387       .  A
C405        C417   1.414       .  A
C405        C413   1.387       .  A
C406        C420   1.415       .  A
C406        C414   1.386       .  A
C407        C415   1.387       .  A
C407        C418   1.418       .  A
C408        C416   1.385       .  A
C408        C419   1.412       .  A
C409        C410   1.379       .  A
C409        H421   1.082       .  S
C410        H422   1.082       .  S
C411        C412   1.378       .  A
C411        H423   1.082       .  S
C412        H424   1.082       .  S
C413        C414   1.374       .  A
C413        H425   1.082       .  S
C414        H426   1.082       .  S
C415        C416   1.375       .  A
C415        H427   1.082       .  S
C416        H428   1.082       .  S
C417        C581   1.488       .  S
C418        C466   1.505       .  S
C419        C553   1.491       .  S
C420        C480   1.500       .  S
N431        C436   1.354       .  A
N431        C435   1.354       .  A
N431        H463   1.039       .  S
N432        C439   1.350       .  A
N432        C440   1.351       .  A
N433        C438   1.354       .  A
N433        C437   1.356       .  A
N433        H464   1.040       .  S
N434        C441   1.353       .  A
N434        C442   1.353       .  A
C435        C443   1.387       .  A
C435        C451   1.415       .  A
C436        C452   1.416       .  A
C436        C444   1.387       .  A
C437        C445   1.388       .  A
C437        C454   1.422       .  A
C438        C453   1.416   1_455  A
C438        C446   1.386       .  A
C439        C451   1.411   1_455  A
C439        C447   1.385       .  A
C440        C454   1.416       .  A
C440        C448   1.387       .  A
C441        C449   1.386       .  A
C441        C452   1.416       .  A
C442        C450   1.387       .  A
C442        C453   1.415       .  A
C443        C444   1.377       .  A
C443        H455   1.082       .  S
C444        H456   1.082       .  S
C445        C446   1.377       .  A
C445        H457   1.082       .  S
C446        H458   1.082       .  S
C447        C448   1.375       .  A
C447        H459   1.082       .  S
C448        H460   1.082       .  S
C449        C450   1.374       .  A
C449        H461   1.082       .  S
C450        H462   1.082       .  S
C451        C525   1.489       .  S
C452        C483   1.493       .  S
C453        C497   1.492       .  S
C454        C469   1.504       .  S
C465        C466   1.407       .  A
C465        C470   1.402       .  A
C465        H472   1.084       .  S
C466        C467   1.421       .  A
C467        C468   1.403       .  A
C467        N474   1.438       .  S
C468        C469   1.406       .  A
C468        H473   1.084       .  S
C469        C470   1.421       .  A
C470        N471   1.438       .  S
N471        H475   1.045       .  S
N471        H476   1.043       .  S
N474        H477   1.042       .  S
N474        H478   1.045       .  S
C479        C480   1.407       .  A
C479        C484   1.409       .  A
C479        H486   1.084       .  S
C480        C481   1.421       .  A
C481        C482   1.402       .  A
C481        N488   1.438       .  S
C482        C483   1.401       .  A
C482        H487   1.084       .  S
C483        C484   1.410       .  A
C484        N485   1.438       .  S
N485        H489   1.045       .  S
N485        H490   1.045       .  S
N488        H491   1.043       .  S
N488        H492   1.045       .  S
C493        C494   1.411       .  A
C493        C498   1.404       .  A
C493        H500   1.081       .  S
C494        C495   1.420       .  A
C495        C496   1.407       .  A
C495        N502   1.436       .  S
C496        C497   1.400       .  A
C496        H501   1.084       .  S
C497        C498   1.414       .  A
C498        N499   1.438       .  S
N499        H503   1.045   1_655  S
N499        H504   1.043       .  S
N502        H505   1.046       .  S
N502        H506   1.046       .  S
C507        C508   1.404   1_556  A
C507        C512   1.403   1_655  A
C507        H514   1.083   1_655  S
C508        C509   1.413       .  A
C509        C510   1.403       .  A
C509        N516   1.432       .  S
C510        C511   1.402       .  A
C510        H515   1.084       .  S
C511        C512   1.411   1_654  A
C512        N513   1.432       .  S
N513        H517   1.045       .  S
N513        H518   1.046       .  S
N516        H519   1.046       .  S
N516        H520   1.045       .  S
C521        C522   1.405   1_455  A
C521        C526   1.402       .  A
C521        H528   1.083       .  S
C522        C523   1.412       .  A
C523        C524   1.405       .  A
C523        N530   1.432       .  S
C524        C525   1.402       .  A
C524        H529   1.084       .  S
C525        C526   1.417   1_655  A
C526        N527   1.439       .  S
N527        H531   1.046       .  S
N527        H532   1.043       .  S
N530        H533   1.046       .  S
N530        H534   1.045       .  S
C535        C536   1.406       .  A
C535        C540   1.407   1_565  A
C535        H542   1.083       .  S
C536        C537   1.414   1_455  A
C537        C538   1.406   1_565  A
C537        N544   1.437       .  S
C538        C539   1.404   1_655  A
C538        H543   1.083       .  S
C539        C540   1.412       .  A
C540        N541   1.438       .  S
N541        H545   1.046       .  S
N541        H546   1.046       .  S
N544        H547   1.045       .  S
N544        H548   1.046       .  S
C549        C550   1.405       .  A
C549        C554   1.408       .  A
C549        H556   1.084       .  S
C550        C551   1.417       .  A
C551        C552   1.400       .  A
C551        N558   1.432       .  S
C552        C553   1.401       .  A
C552        H557   1.084       .  S
C553        C554   1.411       .  A
C554        N555   1.438       .  S
N555        H559   1.046       .  S
N555        H560   1.045       .  S
N558        H561   1.045       .  S
N558        H562   1.043       .  S
C563        C564   1.405       .  A
C563        C568   1.400       .  A
C563        H570   1.084       .  S
C564        C565   1.416       .  A
C565        C566   1.401       .  A
C565        N572   1.432       .  S
C566        C567   1.405       .  A
C566        H571   1.084       .  S
C567        C568   1.415       .  A
C568        N569   1.432       .  S
N569        H573   1.043       .  S
N569        H574   1.045       .  S
N572        H575   1.047       .  S
N572        H576   1.041       .  S
C577        C578   1.411       .  A
C577        C582   1.404       .  A
C577        H584   1.082       .  S
C578        C579   1.419       .  A
C579        C580   1.405       .  A
C579        N586   1.436       .  S
C580        C581   1.399       .  A
C580        H585   1.084       .  S
C581        C582   1.413       .  A
C582        N583   1.439       .  S
N583        H587   1.045       .  S
N583        H588   1.043       .  S
N586        H589   1.046       .  S
N586        H590   1.045       .  S
C591        C592   1.405   1_556  A
C591        C596   1.407   1_565  A
C591        H598   1.083       .  S
C592        C593   1.414       .  A
C593        C594   1.405   1_565  A
C593        N600   1.437       .  S
C594        C595   1.403       .  A
C594        H599   1.083       .  S
C595        C596   1.413   1_554  A
C596        N597   1.438       .  S
N597        H601   1.046       .  S
N597        H602   1.046       .  S
N600        H603   1.045       .  S
N600        H604   1.046       .  S
C605        C606   1.402   1_655  A
C605        C610   1.404       .  A
C605        H612   1.084       .  S
C606        C607   1.415       .  A
C607        C608   1.402       .  A
C607        N614   1.439       .  S
C608        C609   1.406       .  A
C608        H613   1.083       .  S
C609        C610   1.412   1_455  A
C610        N611   1.432       .  S
N611        H615   1.045       .  S
N611        H616   1.046       .  S
N614        H617   1.042       .  S
N614        H618   1.046       .  S
C619        C620   1.401   1_455  A
C619        C624   1.403       .  A
C619        H626   1.084       .  S
C620        C621   1.417       .  A
C621        C622   1.403       .  A
C621        N628   1.440       .  S
C622        C623   1.407       .  A
C622        H627   1.083       .  S
C623        C624   1.413   1_655  A
C624        N625   1.431       .  S
N625        H629   1.045       .  S
N625        H630   1.046       .  S
N628        H631   1.043       .  S
N628        H632   1.046       .  S
C633        C634   1.404       .  A
C633        C638   1.405       .  A
C633        H640   1.084       .  S
C634        C635   1.417       .  A
C635        C636   1.402       .  A
C635        N642   1.438       .  S
C636        C637   1.404       .  A
C636        H641   1.084       .  S
C637        C638   1.420       .  A
C638        N639   1.439       .  S
N639        H643   1.046       .  S
N639        H644   1.042       .  S
N642        H645   1.043       .  S
N642        H646   1.046       .  S
C647        C648   1.406       .  A
C647        C652   1.401       .  A
C647        H654   1.084       .  S
C648        C649   1.420       .  A
C649        C650   1.403       .  A
C649        N656   1.438       .  S
C650        C651   1.408       .  A
C650        H655   1.084       .  S
C651        C652   1.421       .  A
C652        N653   1.438       .  S
N653        H657   1.046       .  S
N653        H658   1.042       .  S
N656        H659   1.043       .  S
N656        H660   1.045       .  S
C661        C662   1.403       .  A
C661        C666   1.406       .  A
C661        H668   1.084       .  S
C662        C663   1.416       .  A
C663        C664   1.402       .  A
C663        N670   1.439       .  S
C664        C665   1.405       .  A
C664        H669   1.083       .  S
C665        C666   1.413       .  A
C666        N667   1.437       .  S
N667        H671   1.046       .  S
N667        H672   1.046       .  S
N670        H673   1.043       .  S
N670        H674   1.046       .  S
C675        C676   1.403       .  A
C675        C680   1.398       .  A
C675        H682   1.084       .  S
C676        C677   1.411       .  A
C677        C678   1.407       .  A
C677        N684   1.438       .  S
C678        C679   1.406       .  A
C678        H683   1.084       .  S
C679        C680   1.416       .  A
C680        N681   1.432       .  S
N681        H685   1.042       .  S
N681        H686   1.046       .  S
N684        H687   1.046       .  S
N684        H688   1.046       .  S
C689        C690   1.400   1_455  A
C689        C694   1.402       .  A
C689        H696   1.084       .  S
C690        C691   1.405       .  A
C691        C692   1.406       .  A
C691        N698   1.432       .  S
C692        C693   1.410       .  A
C692        H697   1.082       .  S
C693        C694   1.414   1_655  A
C694        N695   1.431       .  S
N695        H699   1.046       .  S
N695        H700   1.046   1_455  S
N698        H701   1.045   1_655  S
N698        H702   1.045       .  S
C703        C704   1.402       .  A
C703        C708   1.408       .  A
C703        H710   1.084       .  S
C704        C705   1.416       .  A
C705        C706   1.398       .  A
C705        N712   1.439       .  S
C706        C707   1.404       .  A
C706        H711   1.083       .  S
C707        C708   1.418       .  A
C708        N709   1.437   1_655  S
N709        H713   1.046       .  S
N709        H714   1.045       .  S
N712        H715   1.042       .  S
N712        H716   1.046       .  S
C717        C718   1.406       .  A
C717        C722   1.399       .  A
C717        H724   1.084       .  S
C718        C719   1.419       .  A
C719        C720   1.398       .  A
C719        N726   1.439       .  S
C720        C721   1.406       .  A
C720        H725   1.084       .  S
C721        C722   1.419       .  A
C722        N723   1.438       .  S
N723        H727   1.045       .  S
N723        H728   1.043       .  S
N726        H729   1.043       .  S
N726        H730   1.045       .  S
C731        C732   1.406       .  A
C731        C736   1.399       .  A
C731        H738   1.084       .  S
C732        C733   1.419       .  A
C733        C734   1.398       .  A
C733        N740   1.438       .  S
C734        C735   1.406       .  A
C734        H739   1.084       .  S
C735        C736   1.420       .  A
C736        N737   1.439       .  S
N737        H741   1.045       .  S
N737        H742   1.043       .  S
N740        H743   1.043       .  S
N740        H744   1.045       .  S
C745        C746   1.399       .  A
C745        C750   1.402       .  A
C745        H752   1.084       .  S
C746        C747   1.408       .  A
C747        C748   1.404       .  A
C747        N754   1.438       .  S
C748        C749   1.407       .  A
C748        H753   1.082       .  S
C749        C750   1.425       .  A
C750        N751   1.430       .  S
N751        H755   1.042       .  S
N751        H756   1.046       .  S
N754        H757   1.045       .  S
N754        H758   1.046       .  S
C759        C760   1.401       .  A
C759        C764   1.407       .  A
C759        H766   1.084       .  S
C760        C761   1.417       .  A
C761        C762   1.399       .  A
C761        N768   1.440       .  S
C762        C763   1.403       .  A
C762        H767   1.083       .  S
C763        C764   1.416       .  A
C764        N765   1.437       .  S
N765        H769   1.046       .  S
N765        H770   1.045       .  S
N768        H771   1.043       .  S
N768        H772   1.045       .  S
C773        C774   1.404   1_655  A
C773        C778   1.402       .  A
C773        H780   1.084       .  S
C774        C775   1.412       .  A
C775        C776   1.404       .  A
C775        N782   1.431       .  S
C776        C777   1.402   1_455  A
C776        H781   1.084       .  S
C777        C778   1.409       .  A
C778        N779   1.433       .  S
N779        H783   1.045       .  S
N779        H784   1.046       .  S
N782        H785   1.045       .  S
N782        H786   1.046       .  S
C787        C788   1.401       .  A
C787        C792   1.399       .  A
C787        H794   1.084       .  S
C788        C789   1.413       .  A
C789        C790   1.402       .  A
C789        N796   1.438   1_655  S
C790        C791   1.408       .  A
C790        H795   1.083   1_655  S
C791        C792   1.410       .  A
C792        N793   1.432       .  S
N793        H797   1.046       .  S
N793        H798   1.046       .  S
N796        H799   1.043       .  S
N796        H800   1.046       .  S
C801        C802   1.407       .  A
C801        C806   1.397       .  A
C801        H808   1.083       .  S
C802        C803   1.420       .  A
C803        C804   1.399       .  A
C803        N810   1.438       .  S
C804        C805   1.405       .  A
C804        H809   1.084       .  S
C805        C806   1.418       .  A
C806        N807   1.439       .  S
N807        H811   1.045       .  S
N807        H812   1.043       .  S
N810        H813   1.043       .  S
N810        H814   1.045       .  S
C815        C816   1.403       .  A
C815        C820   1.400       .  A
C815        H822   1.084       .  S
C816        C817   1.408       .  A
C817        C818   1.398       .  A
C817        N824   1.433       .  S
C818        C819   1.407       .  A
C818        H823   1.083       .  S
C819        C820   1.424       .  A
C820        N821   1.438       .  S
N821        H825   1.045       .  S
N821        H826   1.043       .  S
N824        H827   1.045       .  S
N824        H828   1.046       .  S
C829        C830   1.402       .  A
C829        C834   1.401       .  A
C829        H836   1.084       .  S
C830        C831   1.415       .  A
C831        C832   1.404       .  A
C831        N838   1.438       .  S
C832        C833   1.408       .  A
C832        H837   1.083       .  S
C833        C834   1.411       .  A
C834        N835   1.432       .  S
N835        H839   1.046       .  S
N835        H840   1.046       .  S
N838        H841   1.043       .  S
N838        H842   1.046       .  S
C843        C844   1.401       .  A
C843        C848   1.405       .  A
C843        H850   1.084       .  S
C844        C845   1.417       .  A
C845        C846   1.401       .  A
C845        N852   1.439       .  S
C846        C847   1.406       .  A
C846        H851   1.083       .  S
C847        C848   1.414       .  A
C848        N849   1.431       .  S
N849        H853   1.046       .  S
N849        H854   1.045       .  S
N852        H855   1.043       .  S
N852        H856   1.045       .  S
