geometry optimzed in LAMMPS
_audit_creation_date              2020-12-01 
_audit_creation_method            'lammps2cif' 
_symmetry_space_group_name_H-M    'P1' 
_symmetry_Int_Tables_number       1 
_symmetry_cell_setting            triclinic 
loop_ 
_symmetry_equiv_pos_as_xyz 
  x,y,z 
_cell_length_a                    54.49657095 
_cell_length_b                    54.38975414322929 
_cell_length_c                    41.941918861041906 
_cell_angle_alpha                 89.99202714840791 
_cell_angle_beta                  90.77181264567122 
_cell_angle_gamma                 123.73000205409593 
loop_ 
_atom_site_label 
_atom_site_type_symbol 
_atom_site_fract_x 
_atom_site_fract_y 
_atom_site_fract_z 
_atom_site_charge 
C1          C  0.88505316  0.40916879  0.00827652     0.03800
C2          C  0.86951008  0.40498710  0.03643791    -0.12300
C3          C  0.83933006  0.39423346  0.03530230     0.01300
C4          C  0.82496047  0.38857730  0.50557552    -0.10900
C5          C  0.84008958  0.39229313  0.47740609     0.03800
C6          C  0.86999135  0.40263557  0.47880485    -0.10300
H7          H  0.88065258  0.40921300  0.05932711     0.09400
H8          H  0.80148718  0.37924118  0.50426124     0.06900
H9          H  0.88139893  0.40552266  0.45676582     0.06800
C10         C  0.53296893  0.03722033  0.00299578     0.03800
C11         C  0.54285228  0.05253631  0.03239762    -0.12300
C12         C  0.56301648  0.08346127  0.03329223     0.01300
C13         C  0.57304112  0.09888548  0.00448317    -0.10900
C14         C  0.56313456  0.08397534  0.47520904     0.03800
C15         C  0.54314627  0.05327705  0.47458129    -0.10300
H16         H  0.53545161  0.04041104  0.05450851     0.09400
H17         H  0.58766438  0.12276522  0.00464373     0.06900
H18         H  0.53523646  0.04200445  0.45174984     0.06800
C19         C  0.49988447  0.34581368  0.00178878     0.03800
C20         C  0.50661324  0.33651708  0.47374691    -0.12300
C21         C  0.51767290  0.31863923  0.47544443     0.01300
C22         C  0.52231447  0.31008136  0.00524269    -0.10900
C23         C  0.51666372  0.31985187  0.03344102     0.03800
C24         C  0.50510414  0.33732755  0.03155666    -0.10300
H25         H  0.50402071  0.34369764  0.45058667     0.09400
H26         H  0.53219389  0.29744150  0.00632662     0.06900
H27         H  0.50032348  0.34427299  0.05344959     0.06800
O28         O  0.61275205  0.21775239  0.23119573    -0.81100
C29         C  0.70455294  0.31524150  0.29604955     0.98200
O30         O  0.69512586  0.28851545  0.29150673    -0.70200
O31         O  0.65494186  0.23247290  0.28316684    -0.73800
Al32       Al  0.67560446  0.26577703  0.25498382     1.49000
C33         C  0.63244840  0.22296944  0.30014937     0.93500
O34         O  0.59919224  0.26695353  0.28282501    -0.80100
O35         O  0.62697168  0.30517047  0.22737113    -0.73600
Al36       Al  0.61033501  0.24568578  0.25674794     1.90100
O37         O  0.64054706  0.30995429  0.29151438    -0.72700
O38         O  0.68031859  0.31933449  0.21498937    -0.72500
O39         O  0.69488121  0.32770793  0.27959348    -0.78200
O40         O  0.70251314  0.29712249  0.22737069    -0.76400
O41         O  0.64859021  0.27464540  0.25524932    -1.12500
O42         O  0.65924500  0.24220541  0.21781858    -0.71700
C43         C  0.63285490  0.22107419  0.21335877     0.99000
C44         C  0.61403372  0.29109803  0.29813020     0.95400
Al45       Al  0.65976057  0.31233602  0.25350969     1.55600
O46         O  0.61475918  0.23049079  0.29483953    -0.76300
C47         C  0.70001539  0.31454312  0.20991810     0.99600
C48         C  0.60727668  0.28259036  0.21190623     0.94400
O49         O  0.60140150  0.25735605  0.21854776    -0.81700
C50         C  0.08849567  0.46206356  0.99972325     0.03800
C51         C  0.10286494  0.46597469  0.47056625    -0.12300
C52         C  0.13227819  0.47433749  0.47016529     0.01300
C53         C  0.14710414  0.47795800  0.99941698    -0.10900
C54         C  0.13333139  0.47475284  0.02847362     0.03800
C55         C  0.10414228  0.46714551  0.02859830    -0.10300
H56         H  0.09131663  0.46296551  0.44820340     0.09400
H57         H  0.17007921  0.48525514  0.99963934     0.06900
H58         H  0.09356588  0.46460992  0.05116672     0.06800
C59         C  0.39577259  0.82170898  0.00511987     0.03800
C60         C  0.38761424  0.80608860  0.47580495    -0.12300
C61         C  0.37173298  0.77509187  0.47542127     0.01300
C62         C  0.36500831  0.75982915  0.00423746    -0.10900
C63         C  0.37359034  0.77507924  0.03331752     0.03800
C64         C  0.38823642  0.80585727  0.03379923    -0.10300
H65         H  0.39321476  0.81783983  0.45343639     0.09400
H66         H  0.35380329  0.73596970  0.00401635     0.06900
H67         H  0.39526608  0.81746877  0.05650207     0.06800
C68         C  0.44171888  0.48732707  0.00497380     0.03800
C69         C  0.43501807  0.49649962  0.03300985    -0.12300
C70         C  0.42710725  0.51696006  0.03184288     0.01300
C71         C  0.42582952  0.52845022  0.00254410    -0.10900
C72         C  0.43148967  0.51900040  0.47439651     0.03800
C73         C  0.43969128  0.49864895  0.47573622    -0.10300
H74         H  0.43540973  0.48740983  0.05585276     0.09400
H75         H  0.41843899  0.54328150  0.00181117     0.06900
H76         H  0.44444625  0.49172626  0.45379572     0.06800
O77         O  0.33077039  0.55893687  0.21461093    -0.81100
C78         C  0.34231470  0.64673244  0.29769230     0.98200
O79         O  0.36238414  0.64932827  0.28030502    -0.70200
O80         O  0.36977879  0.60645347  0.29134627    -0.73800
Al81       Al  0.36346041  0.62108067  0.25358523     1.49000
C82         C  0.36190603  0.58021627  0.29619014     0.93500
O83         O  0.28972577  0.54796698  0.29031368    -0.80100
O84         O  0.28096648  0.58579028  0.21606394    -0.73600
Al85       Al  0.31102058  0.55566630  0.25236468     1.90100
O86         O  0.27037728  0.57319375  0.27936425    -0.72700
O87         O  0.32348747  0.64038708  0.22900188    -0.72500
O88         O  0.31576135  0.62617779  0.29287296    -0.78200
O89         O  0.36098292  0.63809865  0.21584174    -0.76400
O90         O  0.32472783  0.59396767  0.25336719    -1.12500
O91         O  0.37349418  0.59944734  0.22673551    -0.71700
C92         C  0.35780068  0.57678654  0.20938310     0.99000
C93         C  0.27112974  0.55418575  0.29579837     0.95400
Al94       Al  0.29979163  0.60542531  0.25427657     1.55600
O95         O  0.34208779  0.55920806  0.27894654    -0.76300
C96         C  0.34494883  0.64769516  0.21108641     0.99600
C97         C  0.26956760  0.55891275  0.20975332     0.94400
O98         O  0.27704019  0.54398770  0.22523835    -0.81700
C99         C  0.40546481  0.52948894  0.39312871     0.16600
C100        C  0.39049119  0.52507131  0.36407351    -0.32400
C101        C  0.38867676  0.54826914  0.35269280     0.21000
C102        C  0.40185135  0.57495662  0.36908025     0.03200
C103        C  0.41696648  0.57943273  0.39801194    -0.22100
C104        C  0.41813893  0.55598108  0.40976043     0.12400
S105        S  0.40806334  0.50329514  0.41223195    -0.05800
C106        C  0.42565848  0.52798774  0.44344135    -0.09300
C107        C  0.42986222  0.55531349  0.43854530    -0.25900
S108        S  0.39677753  0.60017030  0.35165205    -0.03100
C109        C  0.37614176  0.57428247  0.32229525    -0.16500
C110        C  0.37375523  0.54770201  0.32582917    -0.14500
H111        H  0.37998608  0.50417393  0.35136789     0.20800
H112        H  0.42667716  0.59999650  0.41122097     0.16900
H113        H  0.43999173  0.57339130  0.45564652     0.19400
H114        H  0.36158282  0.52892819  0.30975522     0.12700
C115        C  0.39909970  0.57168992  0.13925806     0.16600
C116        C  0.41808425  0.57679701  0.11414465    -0.32400
C117        C  0.41266120  0.55211257  0.09683936     0.21000
C118        C  0.38959727  0.52366596  0.10440624     0.03200
C119        C  0.37032131  0.51865221  0.12900878    -0.22100
C120        C  0.37555795  0.54327362  0.14606628     0.12400
S121        S  0.40218266  0.59838824  0.16380466    -0.05800
C122        C  0.37111793  0.57089305  0.18287736    -0.09300
C123        C  0.35921871  0.54272895  0.17078818    -0.25900
S124        S  0.38695667  0.49656410  0.08119473    -0.03100
C125        C  0.41685885  0.52382578  0.06060133    -0.16500
C126        C  0.42825090  0.55237297  0.07132890    -0.14500
H127        H  0.43627271  0.59894779  0.10842402     0.20800
H128        H  0.35207171  0.49650802  0.13466767     0.16900
H129        H  0.33982766  0.52286146  0.17989555     0.19400
H130        H  0.44673145  0.57213246  0.06085199     0.12700
C131        C  0.34216435  0.71918881  0.40690526     0.16600
C132        C  0.32574478  0.69371546  0.38796708    -0.32400
C133        C  0.34065113  0.68932861  0.36407138     0.21000
C134        C  0.37053540  0.70937956  0.35905830     0.03200
C135        C  0.38689313  0.73512613  0.37773151    -0.22100
C136        C  0.37198517  0.73952618  0.40172402     0.12400
S137        S  0.32869896  0.72700389  0.43895456    -0.05800
C138        C  0.36361916  0.75807712  0.44548108    -0.09300
C139        C  0.38435846  0.76221539  0.42357991    -0.25900
S140        S  0.38452039  0.69954573  0.32914971    -0.03100
C141        C  0.34961183  0.66831366  0.32320976    -0.16500
C142        C  0.32852871  0.66574843  0.34358331    -0.14500
H143        H  0.30252357  0.67770796  0.39211332     0.20800
H144        H  0.41027211  0.75075142  0.37409811     0.16900
H145        H  0.40759513  0.77971330  0.42494840     0.19400
H146        H  0.30547843  0.64766366  0.34327254     0.12700
C147        C  0.36696981  0.69372543  0.13554281     0.16600
C148        C  0.37779886  0.70636403  0.10577302    -0.32400
C149        C  0.37149110  0.72655911  0.09475099     0.21000
C150        C  0.35554748  0.73433381  0.11268361     0.03200
C151        C  0.34445964  0.72145044  0.14243255    -0.22100
C152        C  0.35036236  0.70081562  0.15326984     0.12400
S153        S  0.37224330  0.66870012  0.15286562    -0.05800
C154        C  0.35141753  0.66732587  0.18411995    -0.09300
C155        C  0.34108146  0.68543241  0.18119571    -0.25900
S156        S  0.35054170  0.75953962  0.09488092    -0.03100
C157        C  0.36942665  0.75877858  0.06277546    -0.16500
C158        C  0.37936140  0.74039352  0.06603071    -0.14500
H159        H  0.39039479  0.70053113  0.09169263     0.20800
H160        H  0.33162825  0.72706850  0.15637263     0.16900
H161        H  0.32767507  0.68730855  0.19858030     0.19400
H162        H  0.39152871  0.73720634  0.04813701     0.12700
C163        C  0.20839643  0.53304985  0.14681241     0.16600
C164        C  0.18645758  0.53018290  0.12632413    -0.32400
C165        C  0.17513768  0.50823655  0.10265318     0.21000
C166        C  0.18530385  0.48998153  0.09937353     0.03200
C167        C  0.20675186  0.49232583  0.12048075    -0.22100
C168        C  0.21803587  0.51428321  0.14431445     0.12400
S169        S  0.22613976  0.55967425  0.17547870    -0.05800
C170        C  0.24648451  0.54517290  0.18480319    -0.09300
C171        C  0.23973231  0.52088456  0.16649853    -0.25900
S172        S  0.17081915  0.46678142  0.06706122    -0.03100
C173        C  0.15053274  0.48154024  0.05835212    -0.16500
C174        C  0.15484190  0.50316964  0.07949631    -0.14500
H175        H  0.17906477  0.54494238  0.12824411     0.20800
H176        H  0.21483128  0.47820010  0.11791493     0.16900
H177        H  0.25067585  0.50933892  0.16867013     0.19400
H178        H  0.14487490  0.51563851  0.07699758     0.12700
C179        C  0.17163165  0.50357136  0.39026153     0.16600
C180        C  0.18301917  0.51896427  0.36171154    -0.32400
C181        C  0.20950303  0.52349167  0.35107369     0.21000
C182        C  0.22365596  0.51260398  0.36770836     0.03200
C183        C  0.21216721  0.49707631  0.39610591    -0.22100
C184        C  0.18604344  0.49309117  0.40707440     0.12400
S185        S  0.14110461  0.49779065  0.40853226    -0.05800
C186        C  0.14833753  0.48188590  0.43973493    -0.09300
C187        C  0.17267597  0.48040828  0.43525615    -0.25900
S188        S  0.25563093  0.52055918  0.35108702    -0.03100
C189        C  0.25009974  0.53908237  0.32161743    -0.16500
C190        C  0.22472082  0.53891940  0.32463135    -0.14500
H191        H  0.17212865  0.52767592  0.34879738     0.20800
H192        H  0.22348235  0.48906971  0.40947501     0.16900
H193        H  0.18085557  0.47145950  0.45218433     0.19400
H194        H  0.21780745  0.54951267  0.30835540     0.12700
C195        C  0.46887507  0.43635853  0.02151776     0.16600
C196        C  0.48086862  0.42156083  0.03476281    -0.32400
C197        C  0.48077583  0.40031531  0.01580648     0.21000
C198        C  0.46914325  0.39391511  0.98507293     0.03200
C199        C  0.45708823  0.40873170  0.97177796    -0.22100
C200        C  0.45734485  0.43016519  0.99072502     0.12400
S201        S  0.46713692  0.46292729  0.04069768    -0.05800
C202        C  0.45074013  0.46609790  0.00684133    -0.09300
C203        C  0.44693885  0.44715973  0.98211815    -0.25900
S204        S  0.47166805  0.36769547  0.96598235    -0.03100
C205        C  0.48880045  0.36537634  0.99978249    -0.16500
C206        C  0.49203678  0.38415032  0.02435976    -0.14500
H207        H  0.49003247  0.42651234  0.05877131     0.20800
H208        H  0.44811837  0.40393056  0.94769419     0.16900
H209        H  0.43727847  0.44597151  0.45923515     0.19400
H210        H  0.50279163  0.38664679  0.04712425     0.12700
C211        C  0.56042606  0.27858823  0.14074384     0.16600
C212        C  0.54274882  0.27052457  0.11316493    -0.32400
C213        C  0.53871905  0.29165171  0.09976586     0.21000
C214        C  0.55104395  0.31931855  0.11367127     0.03200
C215        C  0.56865554  0.32736005  0.14137647    -0.22100
C216        C  0.57336482  0.30649275  0.15429988     0.12400
S217        S  0.56890450  0.25647229  0.15972451    -0.05800
C218        C  0.59063669  0.28529102  0.18587727    -0.09300
C219        C  0.59092332  0.31055147  0.18019523    -0.25900
S220        S  0.54456958  0.34220044  0.09289037    -0.03100
C221        C  0.52593632  0.31455569  0.06456270    -0.16500
C222        C  0.52426361  0.28876420  0.07164241    -0.14500
H223        H  0.53321570  0.24899578  0.10213758     0.20800
H224        H  0.57890302  0.34919749  0.15187511     0.16900
H225        H  0.60331678  0.33074797  0.19419704     0.19400
H226        H  0.51397621  0.26932109  0.05641172     0.12700
C227        C  0.58738002  0.31906906  0.36430675     0.16600
C228        C  0.58400791  0.33585165  0.38695528    -0.32400
C229        C  0.55945913  0.32093211  0.40677059     0.21000
C230        C  0.53922494  0.29059477  0.40438567     0.03200
C231        C  0.54232108  0.27387394  0.38131213    -0.22100
C232        C  0.56681581  0.28884476  0.36133405     0.12400
S233        S  0.61627416  0.33290880  0.33891835    -0.05800
C234        C  0.60030187  0.29768425  0.32374002    -0.09300
C235        C  0.57398704  0.27646161  0.33783114    -0.25900
S236        S  0.51208307  0.27644196  0.43220534    -0.03100
C237        C  0.52790299  0.31186755  0.44659420    -0.16500
C238        C  0.55287444  0.33330026  0.43077081    -0.14500
H239        H  0.60003688  0.35944653  0.38932553     0.20800
H240        H  0.52659710  0.25019643  0.37933980     0.16900
H241        H  0.56108906  0.25318405  0.33157231     0.19400
H242        H  0.56605235  0.35652342  0.43727693     0.12700
C243        C  0.43948951  0.90588058  0.01976772     0.16600
C244        C  0.45248915  0.93449972  0.03237848    -0.32400
C245        C  0.47587621  0.95801027  0.01556255     0.21000
C246        C  0.48565694  0.95316893  0.98740014     0.03200
C247        C  0.47265497  0.92463078  0.97480572    -0.22100
C248        C  0.44941121  0.90117583  0.99163588     0.12400
S249        S  0.41167548  0.87429909  0.03704251    -0.05800
C250        C  0.41353256  0.85446071  0.00608536    -0.09300
C251        C  0.43455200  0.87183329  0.98356373    -0.25900
S252        S  0.51398393  0.98436503  0.97034038    -0.03100
C253        C  0.51287853  0.00451394  0.00141886    -0.16500
C254        C  0.49152027  0.98744082  0.02386967    -0.14500
H255        H  0.44487992  0.93823882  0.05443006     0.20800
H256        H  0.48043003  0.92086079  0.95289949     0.16900
H257        H  0.43954113  0.86344301  0.96297344     0.19400
H258        H  0.48723426  0.99607784  0.04478536     0.12700
C259        C  0.57458885  0.12617476  0.39801035     0.16600
C260        C  0.57102547  0.13887795  0.37088271    -0.32400
C261        C  0.59639318  0.16341902  0.35794567     0.21000
C262        C  0.62427586  0.17455223  0.37084266     0.03200
C263        C  0.62783337  0.16198022  0.39823774    -0.22100
C264        C  0.60230603  0.13776162  0.41162994     0.12400
S265        S  0.54632048  0.09700808  0.41791212    -0.05800
C266        C  0.57197085  0.10096368  0.44546057    -0.09300
C267        C  0.60090694  0.12343296  0.43907068    -0.25900
S268        S  0.65223403  0.20433916  0.35100409    -0.03100
C269        C  0.62580804  0.20200768  0.32580682    -0.16500
C270        C  0.59713785  0.17929375  0.33236608    -0.14500
H271        H  0.54935416  0.13030573  0.36059714     0.20800
H272        H  0.64943571  0.17092661  0.40890121     0.16900
H273        H  0.61975607  0.12933312  0.45411448     0.19400
H274        H  0.57783102  0.17465732  0.31901281     0.12700
C275        C  0.57662178  0.12206093  0.11480646     0.16600
C276        C  0.57397167  0.13175050  0.14476976    -0.32400
C277        C  0.59761586  0.15942482  0.15581967     0.21000
C278        C  0.62295034  0.17644322  0.13809071     0.03200
C279        C  0.62558598  0.16676246  0.10820452    -0.22100
C280        C  0.60179850  0.13934030  0.09698863     0.12400
S281        S  0.54995443  0.08985866  0.09634785    -0.05800
C282        C  0.57271808  0.10012566  0.06390982    -0.09300
C283        C  0.59978433  0.12686355  0.06796608    -0.25900
S284        S  0.64908725  0.20939955  0.15542121    -0.03100
C285        C  0.62548634  0.20044261  0.18671306    -0.16500
C286        C  0.59887508  0.17319900  0.18375683    -0.14500
H287        H  0.55417240  0.11855487  0.15859627     0.20800
H288        H  0.64512924  0.18023448  0.09407781     0.16900
H289        H  0.61699029  0.13702896  0.05037689     0.19400
H290        H  0.58135183  0.16409804  0.20098823     0.12700
C291        C  0.96759471  0.44010930  0.02163976     0.16600
C292        C  0.99682352  0.45409236  0.03281549    -0.32400
C293        C  0.01597074  0.44988655  0.01520087     0.21000
C294        C  0.00648840  0.43298841  0.48748590     0.03200
C295        C  0.97739163  0.41915836  0.47632153    -0.22100
C296        C  0.95828815  0.42321257  0.49400214     0.12400
S297        S  0.94064819  0.44183946  0.03965548    -0.05800
C298        C  0.91652318  0.41921130  0.00966099    -0.09300
C299        C  0.92917985  0.41124568  0.48702623    -0.25900
S300        S  0.03288293  0.43072446  0.46924768    -0.03100
C301        C  0.05727729  0.45282917  0.99931080    -0.16500
C302        C  0.04513682  0.46144480  0.02209997    -0.14500
H303        H  0.00426126  0.46751614  0.05431681     0.20800
H304        H  0.96994203  0.40575971  0.45479516     0.16900
H305        H  0.91760281  0.39675542  0.46681132     0.19400
H306        H  0.05707045  0.47577917  0.04231181     0.12700
C307        C  0.79811930  0.35681711  0.39929603     0.16600
C308        C  0.78381734  0.33805696  0.37303578    -0.32400
C309        C  0.76319778  0.34090529  0.35614399     0.21000
C310        C  0.75762828  0.36206009  0.36431092     0.03200
C311        C  0.77191324  0.38081262  0.39066299    -0.22100
C312        C  0.79190444  0.37736188  0.40817879     0.12400
S313        S  0.82267156  0.35570075  0.42383086    -0.05800
C314        C  0.82391080  0.38257802  0.44680789    -0.09300
C315        C  0.80650588  0.39208133  0.43569690    -0.25900
S316        S  0.73138663  0.36152158  0.34093166    -0.03100
C317        C  0.72724583  0.33183320  0.32080993    -0.16500
C318        C  0.74572064  0.32341324  0.33131518    -0.14500
H319        H  0.78799353  0.32143155  0.36656471     0.20800
H320        H  0.76708212  0.39683278  0.39770208     0.16900
H321        H  0.80428971  0.40845319  0.44747589     0.19400
H322        H  0.74593030  0.30506093  0.32164541     0.12700
C323        C  0.79851106  0.36443597  0.11432037     0.16600
C324        C  0.78752193  0.34983934  0.14329746    -0.32400
C325        C  0.76094725  0.34512907  0.15375777     0.21000
C326        C  0.74617049  0.35499260  0.13650486     0.03200
C327        C  0.75722562  0.36969090  0.10750732    -0.22100
C328        C  0.78358085  0.37392766  0.09674768     0.12400
S329        S  0.82952847  0.37075611  0.09680788    -0.05800
C330        C  0.82213554  0.38586923  0.06498155    -0.09300
C331        C  0.79705028  0.38629944  0.06842722    -0.25900
S332        S  0.71409516  0.34681007  0.15330591    -0.03100
C333        C  0.72050787  0.32950891  0.18354300    -0.16500
C334        C  0.74627139  0.33039391  0.18068318    -0.14500
H335        H  0.79889172  0.34196080  0.15679916     0.20800
H336        H  0.74552295  0.37699389  0.09366022     0.16900
H337        H  0.78871064  0.39460680  0.05085934     0.19400
H338        H  0.75381135  0.32065965  0.19738779     0.12700
C339        C  0.88507785  0.40935024  0.50826572     0.03800
C340        C  0.86954411  0.40515235  0.53644325    -0.12300
C341        C  0.83934692  0.39433527  0.53532944     0.01300
C342        C  0.82497444  0.38854534  0.00553556    -0.10900
C343        C  0.84011113  0.39223760  0.97736945     0.03800
C344        C  0.86999543  0.40249706  0.97880193    -0.10300
H345        H  0.88070583  0.40941620  0.55932513     0.09400
H346        H  0.80151463  0.37927355  0.00421211     0.06900
H347        H  0.88142265  0.40537174  0.95678053     0.06800
C348        C  0.53324809  0.03717755  0.50305326     0.03800
C349        C  0.54301231  0.05253619  0.53243626    -0.12300
C350        C  0.56314705  0.08346518  0.53329768     0.01300
C351        C  0.57325889  0.09885142  0.50447511    -0.10900
C352        C  0.56281451  0.08405359  0.97520326     0.03800
C353        C  0.54279319  0.05336024  0.97454279    -0.10300
H354        H  0.53554532  0.04044156  0.55456113     0.09400
H355        H  0.58785945  0.12273345  0.50460704     0.06900
H356        H  0.53481012  0.04212238  0.95170214     0.06800
C357        C  0.49995487  0.34587961  0.50168426     0.03800
C358        C  0.50658767  0.33649801  0.97384896    -0.12300
C359        C  0.51778889  0.31874700  0.97554580     0.01300
C360        C  0.52211444  0.30990734  0.50514457    -0.10900
C361        C  0.51653918  0.31975200  0.53333479     0.03800
C362        C  0.50508751  0.33731932  0.53144704    -0.10300
H363        H  0.50392436  0.34362585  0.95068797     0.09400
H364        H  0.53190987  0.29718948  0.50624103     0.06900
H365        H  0.50035134  0.34429834  0.55334360     0.06800
O366        O  0.61262781  0.21784246  0.73115726    -0.81100
C367        C  0.70456459  0.31531278  0.79598610     0.98200
O368        O  0.69510243  0.28857421  0.79146686    -0.70200
O369        O  0.65480822  0.23253468  0.78317547    -0.73800
Al370      Al  0.67551880  0.26581228  0.75495886     1.49000
C371        C  0.63229761  0.22305429  0.80012642     0.93500
O372        O  0.59917741  0.26713892  0.78275129    -0.80100
O373        O  0.62698603  0.30532513  0.72733965    -0.73600
Al374      Al  0.61027350  0.24582121  0.75669162     1.90100
O375        O  0.64058772  0.31007896  0.79149322    -0.72700
O376        O  0.68029720  0.31939419  0.71494051    -0.72500
O377        O  0.69489696  0.32778292  0.77953122    -0.78200
O378        O  0.70243731  0.29712123  0.72731017    -0.76400
O379        O  0.64854735  0.27473661  0.75521245    -1.12500
O380        O  0.65912185  0.24222234  0.71781116    -0.71700
C381        C  0.63271956  0.22112919  0.71333027     0.99000
C382        C  0.61406414  0.29125425  0.79810212     0.95400
Al383      Al  0.65976884  0.31244055  0.75346982     1.55600
O384        O  0.61463701  0.23060397  0.79478306    -0.76300
C385        C  0.69995897  0.31455500  0.70985594     0.99600
C386        C  0.60730111  0.28275725  0.71184919     0.94400
O387        O  0.60140612  0.25751759  0.71848587    -0.81700
C388        C  0.08851172  0.46225487  0.49951939     0.03800
C389        C  0.10286617  0.46584781  0.97076985    -0.12300
C390        C  0.13229090  0.47425000  0.97036560     0.01300
C391        C  0.14710071  0.47809173  0.49922266    -0.10900
C392        C  0.13334261  0.47494422  0.52826857     0.03800
C393        C  0.10416624  0.46736170  0.52839213    -0.10300
H394        H  0.09132268  0.46286625  0.94840960     0.09400
H395        H  0.17007023  0.48537139  0.49946215     0.06900
H396        H  0.09361026  0.46486863  0.55096359     0.06800
C397        C  0.39582077  0.82171669  0.50505669     0.03800
C398        C  0.38759871  0.80607462  0.97586983    -0.12300
C399        C  0.37178488  0.77508108  0.97548653     0.01300
C400        C  0.36493650  0.75983418  0.50416645    -0.10900
C401        C  0.37358499  0.77508415  0.53324841     0.03800
C402        C  0.38827894  0.80586655  0.53373352    -0.10300
H403        H  0.39315910  0.81781477  0.95349717     0.09400
H404        H  0.35368259  0.73596909  0.50393441     0.06900
H405        H  0.39535525  0.81748456  0.55643184     0.06800
C406        C  0.44198438  0.48754760  0.50519955     0.03800
C407        C  0.43527409  0.49668937  0.53325293    -0.12300
C408        C  0.42734158  0.51712949  0.53210632     0.01300
C409        C  0.42602124  0.52861627  0.50283054    -0.10900
C410        C  0.43129697  0.51880680  0.97412490     0.03800
C411        C  0.43944672  0.49841527  0.97549500    -0.10300
H412        H  0.43565063  0.48757869  0.55608736     0.09400
H413        H  0.41858902  0.54341410  0.50213251     0.06900
H414        H  0.44419508  0.49146064  0.95357170     0.06800
O415        O  0.33058298  0.55896537  0.71451199    -0.81100
C416        C  0.34223132  0.64682597  0.79757086     0.98200
O417        O  0.36227129  0.64939161  0.78015756    -0.70200
O418        O  0.36958283  0.60644616  0.79132980    -0.73800
Al419      Al  0.36329747  0.62105647  0.75353015     1.49000
C420        C  0.36173519  0.58020485  0.79611893     0.93500
O421        O  0.28954249  0.54794331  0.79024439    -0.80100
O422        O  0.28079397  0.58581928  0.71607430    -0.73600
Al423      Al  0.31083734  0.55566551  0.75228898     1.90100
O424        O  0.27026059  0.57325279  0.77940175    -0.72700
O425        O  0.32336529  0.64038495  0.72893477    -0.72500
O426        O  0.31567901  0.62623444  0.79283438    -0.78200
O427        O  0.36080025  0.63799923  0.71573052    -0.76400
O428        O  0.32456161  0.59396575  0.75332729    -1.12500
O429        O  0.37333247  0.59937279  0.72678159    -0.71700
C430        C  0.35763912  0.57676107  0.70936729     0.99000
C431        C  0.27099365  0.55421238  0.79579788     0.95400
Al432      Al  0.29965901  0.60545639  0.75426155     1.55600
O433        O  0.34191795  0.55920533  0.77885775    -0.76300
C434        C  0.34477505  0.64760712  0.71096740     0.99600
C435        C  0.26940561  0.55895627  0.70970804     0.94400
O436        O  0.27685627  0.54400456  0.72517237    -0.81700
C437        C  0.40537675  0.52938699  0.89283711     0.16600
C438        C  0.39036744  0.52498789  0.86381043    -0.32400
C439        C  0.38858529  0.54821386  0.85245743     0.21000
C440        C  0.40184081  0.57491532  0.86883122     0.03200
C441        C  0.41700486  0.57937796  0.89772334    -0.22100
C442        C  0.41812736  0.55589327  0.90945778     0.12400
S443        S  0.40789177  0.50314285  0.91194623    -0.05800
C444        C  0.42553774  0.52782974  0.94315088    -0.09300
C445        C  0.42983608  0.55519469  0.93823977    -0.25900
S446        S  0.39676982  0.60015330  0.85146393    -0.03100
C447        C  0.37601662  0.57425541  0.82215868    -0.16500
C448        C  0.37360146  0.54765675  0.82565513    -0.14500
H449        H  0.37979146  0.50407676  0.85112129     0.20800
H450        H  0.42676829  0.59994958  0.91092928     0.16900
H451        H  0.44000200  0.57327352  0.95533998     0.19400
H452        H  0.36135772  0.52887386  0.80960498     0.12700
C453        C  0.39936803  0.57164690  0.63971875     0.16600
C454        C  0.41867604  0.57673036  0.61497489    -0.32400
C455        C  0.41298849  0.55211491  0.59731746     0.21000
C456        C  0.38935117  0.52374966  0.60419284     0.03200
C457        C  0.36977546  0.51877772  0.62842951    -0.22100
C458        C  0.37528968  0.54333669  0.64584433     0.12400
S459        S  0.40267528  0.59824764  0.66460429    -0.05800
C460        C  0.37100207  0.57086862  0.68290820    -0.09300
C461        C  0.35874206  0.54281159  0.67031969    -0.25900
S462        S  0.38641833  0.49670448  0.58061992    -0.03100
C463        C  0.41699969  0.52389641  0.56083366    -0.16500
C464        C  0.42881786  0.55237736  0.57205818    -0.14500
H465        H  0.43729890  0.59880880  0.60979228     0.20800
H466        H  0.35109340  0.49670890  0.63354951     0.16900
H467        H  0.33895750  0.52301828  0.67892036     0.19400
H468        H  0.44773837  0.57209625  0.56207481     0.12700
C469        C  0.34217639  0.71921558  0.90691519     0.16600
C470        C  0.32576368  0.69373538  0.88799014    -0.32400
C471        C  0.34062902  0.68944184  0.86396614     0.21000
C472        C  0.37046611  0.70959845  0.85879925     0.03200
C473        C  0.38681509  0.73536392  0.87745361    -0.22100
C474        C  0.37194995  0.73965960  0.90159567     0.12400
S475        S  0.32876706  0.72690442  0.93911385    -0.05800
C476        C  0.36364775  0.75806531  0.94553749    -0.09300
C477        C  0.38433178  0.76233028  0.92348215    -0.25900
S478        S  0.38441116  0.69982909  0.82877655    -0.03100
C479        C  0.34955055  0.66847040  0.82302481    -0.16500
C480        C  0.32851193  0.66583546  0.84351798    -0.14500
H481        H  0.30258408  0.67764147  0.89225596     0.20800
H482        H  0.41016167  0.75106855  0.87371045     0.16900
H483        H  0.40754481  0.77990880  0.92475129     0.19400
H484        H  0.30549791  0.64766395  0.84334217     0.12700
C485        C  0.36660303  0.69339475  0.63526387     0.16600
C486        C  0.37730632  0.70591336  0.60542126    -0.32400
C487        C  0.37127291  0.72634842  0.59454379     0.21000
C488        C  0.35571781  0.73446514  0.61267946     0.03200
C489        C  0.34475825  0.72170726  0.64250298    -0.22100
C490        C  0.35037886  0.70083361  0.65319763     0.12400
S491        S  0.37160738  0.66813897  0.65245644    -0.05800
C492        C  0.35119606  0.66715902  0.68394213    -0.09300
C493        C  0.34117260  0.68553959  0.68117895    -0.25900
S494        S  0.35098691  0.75990768  0.59502204    -0.03100
C495        C  0.36944016  0.75877611  0.56269649    -0.16500
C496        C  0.37905972  0.74011312  0.56578610    -0.14500
H497        H  0.38960285  0.69981520  0.59118175     0.20800
H498        H  0.33223070  0.72759820  0.65660702     0.16900
H499        H  0.32806043  0.68768832  0.69872875     0.19400
H500        H  0.39094710  0.73668290  0.54775186     0.12700
C501        C  0.20849260  0.53335583  0.64651048     0.16600
C502        C  0.18668057  0.53061150  0.62590935    -0.32400
C503        C  0.17525515  0.50857477  0.60233652     0.21000
C504        C  0.18521104  0.49012517  0.59924316     0.03200
C505        C  0.20654045  0.49235992  0.62045670    -0.22100
C506        C  0.21791888  0.51439968  0.64420603     0.12400
S507        S  0.22630376  0.56002261  0.67511715    -0.05800
C508        C  0.24638462  0.54528378  0.68468905    -0.09300
C509        C  0.23950537  0.52089378  0.66649565    -0.25900
S510        S  0.17060874  0.46680328  0.56703561    -0.03100
C511        C  0.15054683  0.48176859  0.55813999    -0.16500
C512        C  0.15502369  0.50356326  0.57912906    -0.14500
H513        H  0.17944846  0.54551274  0.62768608     0.20800
H514        H  0.21444902  0.47807512  0.61804602     0.16900
H515        H  0.25028030  0.50919359  0.66882475     0.19400
H516        H  0.14520389  0.51615956  0.57649735     0.12700
C517        C  0.17169472  0.50374935  0.89052847     0.16600
C518        C  0.18309599  0.51922380  0.86202348    -0.32400
C519        C  0.20950969  0.52365867  0.85127214     0.21000
C520        C  0.22358644  0.51261512  0.86776162     0.03200
C521        C  0.21209366  0.49702236  0.89612726    -0.22100
C522        C  0.18603584  0.49312044  0.90720625     0.12400
S523        S  0.14121650  0.49800254  0.90888516    -0.05800
C524        C  0.14837050  0.48190326  0.93994253    -0.09300
C525        C  0.17265736  0.48035795  0.93536436    -0.25900
S526        S  0.25546686  0.52044926  0.85099573    -0.03100
C527        C  0.25000100  0.53913165  0.82166175    -0.16500
C528        C  0.22471203  0.53911039  0.82483003    -0.14500
H529        H  0.17225850  0.52804631  0.84921707     0.20800
H530        H  0.22334883  0.48888744  0.90938065     0.16900
H531        H  0.18078179  0.47129110  0.95220490     0.19400
H532        H  0.21784476  0.54981123  0.80865576     0.12700
C533        C  0.46907453  0.43650349  0.52164121     0.16600
C534        C  0.48098971  0.42162471  0.53486599    -0.32400
C535        C  0.48099119  0.40048221  0.51581395     0.21000
C536        C  0.46953378  0.39426634  0.48500778     0.03200
C537        C  0.45756762  0.40916965  0.47173207    -0.22100
C538        C  0.45771773  0.43048850  0.49077804     0.12400
S539        S  0.46721614  0.46295377  0.54093142    -0.05800
C540        C  0.45100453  0.46631432  0.50702381    -0.09300
C541        C  0.44734571  0.44751679  0.48220851    -0.25900
S542        S  0.47210665  0.36811810  0.46582343    -0.03100
C543        C  0.48900868  0.36556138  0.49968847    -0.16500
C544        C  0.49215709  0.38422931  0.52434852    -0.14500
H545        H  0.49000951  0.42642679  0.55893514     0.20800
H546        H  0.44872736  0.40450644  0.44759548     0.16900
H547        H  0.43675251  0.44550184  0.95918972     0.19400
H548        H  0.50276374  0.38657954  0.54717428     0.12700
C549        C  0.56039354  0.27867565  0.64071757     0.16600
C550        C  0.54262751  0.27053935  0.61320270    -0.32400
C551        C  0.53865031  0.29167030  0.59971638     0.21000
C552        C  0.55112023  0.31941562  0.61347795     0.03200
C553        C  0.56882170  0.32753049  0.64111708    -0.22100
C554        C  0.57346761  0.30665186  0.65413163     0.12400
S555        S  0.56880784  0.25655407  0.65979101    -0.05800
C556        C  0.59068053  0.28545730  0.68580125    -0.09300
C557        C  0.59107047  0.31075627  0.67999980    -0.25900
S558        S  0.54468863  0.34228416  0.59261576    -0.03100
C559        C  0.52586429  0.31451962  0.56445066    -0.16500
C560        C  0.52410954  0.28870614  0.57163360    -0.14500
H561        H  0.53298134  0.24894730  0.60229139     0.20800
H562        H  0.57917403  0.34942376  0.65150130     0.16900
H563        H  0.60355747  0.33100535  0.69390334     0.19400
H564        H  0.51370651  0.26919425  0.55650059     0.12700
C565        C  0.58758560  0.31919587  0.86449563     0.16600
C566        C  0.58430634  0.33595737  0.88726028    -0.32400
C567        C  0.55967803  0.32106714  0.90696728     0.21000
C568        C  0.53927425  0.29077523  0.90436544     0.03200
C569        C  0.54228909  0.27407749  0.88118623    -0.22100
C570        C  0.56686697  0.28902134  0.86131820     0.12400
S571        S  0.61653216  0.33300407  0.83918720    -0.05800
C572        C  0.60037798  0.29783786  0.82376605    -0.09300
C573        C  0.57396961  0.27665421  0.83772748    -0.25900
S574        S  0.51202110  0.27663885  0.93205420    -0.03100
C575        C  0.52803818  0.31201348  0.94668827    -0.16500
C576        C  0.55315036  0.33341724  0.93104154    -0.14500
H577        H  0.60045670  0.35951308  0.88979041     0.20800
H578        H  0.52643417  0.25043540  0.87904509     0.16900
H579        H  0.56095100  0.25341261  0.83130958     0.19400
H580        H  0.56644674  0.35659984  0.93770754     0.12700
C581        C  0.43964037  0.90587132  0.51972666     0.16600
C582        C  0.45262041  0.93449317  0.53231742    -0.32400
C583        C  0.47611775  0.95798283  0.51559775     0.21000
C584        C  0.48603533  0.95311736  0.48755442     0.03200
C585        C  0.47306103  0.92457452  0.47498576    -0.22100
C586        C  0.44969319  0.90114196  0.49170952     0.12400
S587        S  0.41167461  0.87431661  0.53688551    -0.05800
C588        C  0.41364061  0.85446060  0.50603175    -0.09300
C589        C  0.43480634  0.87180034  0.48362714    -0.25900
S590        S  0.51445709  0.98429606  0.47057432    -0.03100
C591        C  0.51319477  0.00446945  0.50151597    -0.16500
C592        C  0.49172880  0.98741783  0.52387575    -0.14500
H593        H  0.44489953  0.93825164  0.55427247     0.20800
H594        H  0.48093427  0.92078658  0.45316694     0.16900
H595        H  0.43986437  0.86338093  0.46311826     0.19400
H596        H  0.48733409  0.99607520  0.54469172     0.12700
C597        C  0.57427766  0.12632672  0.89804680     0.16600
C598        C  0.57074054  0.13903981  0.87090895    -0.32400
C599        C  0.59613061  0.16355303  0.85796362     0.21000
C600        C  0.62400346  0.17465264  0.87087010     0.03200
C601        C  0.62753209  0.16207728  0.89827574    -0.22100
C602        C  0.60198891  0.13788393  0.91166740     0.12400
S603        S  0.54599401  0.09716433  0.91794319    -0.05800
C604        C  0.57163694  0.10108394  0.94548268    -0.09300
C605        C  0.60057680  0.12353982  0.93909599    -0.25900
S606        S  0.65199697  0.20439627  0.85102098    -0.03100
C607        C  0.62560541  0.20209484  0.82579745    -0.16500
C608        C  0.59691547  0.17942382  0.83235938    -0.14500
H609        H  0.54907690  0.13048847  0.86061362     0.20800
H610        H  0.64912891  0.17099504  0.90893981     0.16900
H611        H  0.61942525  0.12940957  0.95412518     0.19400
H612        H  0.57762557  0.17481379  0.81899015     0.12700
C613        C  0.57649960  0.12216499  0.61470370     0.16600
C614        C  0.57378518  0.13188210  0.64462131    -0.32400
C615        C  0.59744190  0.15953109  0.65571775     0.21000
C616        C  0.62283777  0.17650281  0.63806833     0.03200
C617        C  0.62553201  0.16680048  0.60822516    -0.22100
C618        C  0.60174335  0.13939952  0.59697043     0.12400
S619        S  0.54986063  0.08996476  0.59621571    -0.05800
C620        C  0.57273853  0.10017107  0.56388705    -0.09300
C621        C  0.59980812  0.12689186  0.56799386    -0.25900
S622        S  0.64899484  0.20941873  0.65545112    -0.03100
C623        C  0.62533145  0.20050709  0.68666829    -0.16500
C624        C  0.59867548  0.17331114  0.68364220    -0.14500
H625        H  0.55394057  0.11871751  0.65838727     0.20800
H626        H  0.64513155  0.18023263  0.59416726     0.16900
H627        H  0.61707887  0.13701538  0.55047443     0.19400
H628        H  0.58111275  0.16424115  0.70082324     0.12700
C629        C  0.96762392  0.44028304  0.52158795     0.16600
C630        C  0.99684125  0.45420894  0.53277952    -0.32400
C631        C  0.01599429  0.45006460  0.51509152     0.21000
C632        C  0.00644840  0.43269893  0.98767513     0.03200
C633        C  0.97733916  0.41881316  0.97652386    -0.22100
C634        C  0.95824041  0.42292823  0.99413353     0.12400
S635        S  0.94066664  0.44194493  0.53967949    -0.05800
C636        C  0.91655948  0.41942779  0.50961460    -0.09300
C637        C  0.92912467  0.41093634  0.98715363    -0.25900
S638        S  0.03284182  0.43037872  0.96951469    -0.03100
C639        C  0.05730248  0.45305276  0.49911566    -0.16500
C640        C  0.04515162  0.46158641  0.52198592    -0.14500
H641        H  0.00426573  0.46754309  0.55434575     0.20800
H642        H  0.96987770  0.40532972  0.95505941     0.16900
H643        H  0.91752917  0.39637885  0.96698887     0.19400
H644        H  0.05706883  0.47583953  0.54225479     0.12700
C645        C  0.79832180  0.35703299  0.89906782     0.16600
C646        C  0.78412400  0.33838270  0.87270070    -0.32400
C647        C  0.76336636  0.34110951  0.85593593     0.21000
C648        C  0.75758196  0.36206451  0.86431963     0.03200
C649        C  0.77176357  0.38070596  0.89077436    -0.22100
C650        C  0.79187901  0.37735753  0.90817089     0.12400
S651        S  0.82299397  0.35600839  0.92349283    -0.05800
C652        C  0.82396296  0.38260596  0.94673532    -0.09300
C653        C  0.80639154  0.39196487  0.93577208    -0.25900
S654        S  0.73120326  0.36140691  0.84107849    -0.03100
C655        C  0.72728060  0.33192054  0.82072679    -0.16500
C656        C  0.74593126  0.32365901  0.83105353    -0.14500
H657        H  0.78847242  0.32191551  0.86606327     0.20800
H658        H  0.76675380  0.39655374  0.89798553     0.16900
H659        H  0.80399708  0.40815611  0.94770990     0.19400
H660        H  0.74628629  0.30543881  0.82122882     0.12700
C661        C  0.79853815  0.36456720  0.61435456     0.16600
C662        C  0.78755499  0.34998841  0.64334208    -0.32400
C663        C  0.76092376  0.34518465  0.65373995     0.21000
C664        C  0.74608644  0.35494136  0.63641653     0.03200
C665        C  0.75713341  0.36961866  0.60741022    -0.22100
C666        C  0.78354616  0.37395091  0.59671697     0.12400
S667        S  0.82961932  0.37098619  0.59690079    -0.05800
C668        C  0.82216275  0.38598769  0.56501320    -0.09300
C669        C  0.79701800  0.38632023  0.56840214    -0.25900
S670        S  0.71396214  0.34667843  0.65315602    -0.03100
C671        C  0.72043862  0.32949119  0.68346787    -0.16500
C672        C  0.74625248  0.33046284  0.68067251    -0.14500
H673        H  0.79897358  0.34219512  0.65689955     0.20800
H674        H  0.74538554  0.37683863  0.59350921     0.16900
H675        H  0.78863282  0.39454977  0.55079366     0.19400
H676        H  0.75383808  0.32081254  0.69743595     0.12700
loop_ 
_geom_bond_atom_site_label_1 
_geom_bond_atom_site_label_2 
_geom_bond_distance 
_geom_bond_site_symmetry_2 
_ccdc_geom_bond_type 
C1            C2   1.406       .  A
C1          C344   1.405   1_554  A
C1          C298   1.483       .  S
C2            C3   1.407       .  A
C2            H7   1.083       .  S
C3          C342   1.404       .  A
C3          C330   1.481       .  S
C4            C5   1.399       .  A
C4          C341   1.404       .  A
C4            H8   1.084       .  S
C5            C6   1.398       .  A
C5          C314   1.468       .  S
C6          C339   1.406       .  A
C6            H9   1.083       .  S
C10          C11   1.410       .  A
C10         C353   1.406   1_554  A
C10         C253   1.484       .  S
C11          C12   1.409       .  A
C11          H16   1.083       .  S
C12          C13   1.404       .  A
C12         C282   1.483       .  S
C13         C352   1.397   1_554  A
C13          H17   1.083       .  S
C14          C15   1.398       .  A
C14         C351   1.397       .  A
C14         C266   1.471       .  S
C15         C348   1.406       .  A
C15          H18   1.084       .  S
C19          C24   1.410       .  A
C19         C358   1.407   1_554  A
C19         C205   1.489   1_554  S
C20          C21   1.401       .  A
C20         C357   1.407       .  A
C20          H25   1.083       .  S
C21         C360   1.398       .  A
C21         C237   1.469       .  S
C22          C23   1.403       .  A
C22         C359   1.398   1_554  A
C22          H26   1.084       .  S
C23          C24   1.404       .  A
C23         C221   1.478       .  S
C24          H27   1.081       .  S
O28          C43   1.263       .  A
O28         Al36   1.924       .  S
C29         C317   1.466       .  S
C29          O39   1.265       .  A
C29          O30   1.258       .  A
O30         Al32   1.872       .  S
O31          C33   1.264       .  A
O31         Al32   1.928       .  S
Al32         O40   1.915       .  S
Al32         O42   1.887       .  S
Al32         O41   1.786       .  S
C33         C269   1.463       .  S
C33          O46   1.256       .  A
O34          C44   1.264       .  A
O34         Al36   1.924       .  S
O35          C48   1.264       .  A
O35         Al45   1.929       .  S
Al36         O49   1.879       .  S
Al36         O46   1.872       .  S
Al36         O41   1.785       .  S
O37          C44   1.258       .  A
O37         Al45   1.884       .  S
O38          C47   1.258       .  A
O38         Al45   1.893       .  S
O39         Al45   1.930       .  S
O40          C47   1.262       .  A
O41         Al45   1.787       .  S
O42          C43   1.258       .  A
C43         C285   1.469       .  S
C44         C234   1.470       .  S
C47         C333   1.469       .  S
C48         C218   1.469       .  S
C48          O49   1.256       .  A
C50          C55   1.407   1_556  A
C50         C389   1.406       .  A
C50         C301   1.482       .  S
C51          C52   1.403       .  A
C51         C388   1.406       .  A
C51          H56   1.083       .  S
C52         C391   1.404       .  A
C52         C186   1.481       .  S
C53          C54   1.399   1_556  A
C53         C390   1.403       .  A
C53          H57   1.083       .  S
C54          C55   1.404       .  A
C54         C173   1.473       .  S
C55          H58   1.083       .  S
C59          C64   1.407       .  A
C59         C398   1.411   1_554  A
C59         C250   1.482       .  S
C60          C61   1.404       .  A
C60         C397   1.411       .  A
C60          H65   1.083       .  S
C61         C400   1.396       .  A
C61         C138   1.470       .  S
C62          C63   1.396       .  A
C62         C399   1.396   1_554  A
C62          H66   1.085       .  S
C63          C64   1.398       .  A
C63         C157   1.466       .  S
C64          H67   1.083       .  S
C68          C69   1.407       .  A
C68         C411   1.409   1_554  A
C68         C202   1.487       .  S
C69          C70   1.400       .  A
C69          H74   1.083       .  S
C70          C71   1.397       .  A
C70         C125   1.468       .  S
C71         C410   1.403   1_554  A
C71          H75   1.084       .  S
C72          C73   1.406       .  A
C72         C409   1.403       .  A
C72         C106   1.479       .  S
C73         C406   1.410       .  A
C73          H76   1.082       .  S
O77          C92   1.257       .  A
O77         Al85   1.879       .  S
C78         C141   1.467       .  S
C78          O88   1.257       .  A
C78          O79   1.264       .  A
O79         Al81   1.929       .  S
O80          C82   1.259       .  A
O80         Al81   1.884       .  S
Al81         O89   1.874       .  S
Al81         O91   1.919       .  S
Al81         O90   1.781       .  S
C82         C109   1.470       .  S
C82          O95   1.266       .  A
O83          C93   1.258       .  A
O83         Al85   1.888       .  S
O84          C97   1.257       .  A
O84         Al94   1.871       .  S
Al85         O98   1.940       .  S
Al85         O95   1.932       .  S
Al85         O90   1.781       .  S
O86          C93   1.262       .  A
O86         Al94   1.917       .  S
O87          C96   1.264       .  A
O87         Al94   1.928       .  S
O88         Al94   1.877       .  S
O89          C96   1.256       .  A
O90         Al94   1.783       .  S
O91          C92   1.262       .  A
C92         C122   1.465       .  S
C93         C189   1.466       .  S
C96         C154   1.461       .  S
C97         C170   1.469       .  S
C97          O98   1.267       .  A
C99         C104   1.386       .  A
C99         C100   1.402       .  A
C99         S105   1.707       .  A
C100        C101   1.402       .  A
C100        H111   1.083       .  S
C101        C110   1.371       .  A
C101        C102   1.387       .  A
C102        C103   1.400       .  A
C102        S108   1.705       .  A
C103        C104   1.401       .  A
C103        H112   1.083       .  S
C104        C107   1.368       .  A
S105        C106   1.724       .  A
C106        C107   1.388       .  A
C107        H113   1.083       .  S
S108        C109   1.723       .  A
C109        C110   1.386       .  A
C110        H114   1.083       .  S
C115        C120   1.387       .  A
C115        C116   1.403       .  A
C115        S121   1.709       .  A
C116        C117   1.404       .  A
C116        H127   1.082       .  S
C117        C126   1.370       .  A
C117        C118   1.388       .  A
C118        C119   1.398       .  A
C118        S124   1.704       .  A
C119        C120   1.399       .  A
C119        H128   1.083       .  S
C120        C123   1.365       .  A
S121        C122   1.722       .  A
C122        C123   1.383       .  A
C123        H129   1.083       .  S
S124        C125   1.719       .  A
C125        C126   1.386       .  A
C126        H130   1.083       .  S
C131        C136   1.387       .  A
C131        C132   1.398       .  A
C131        S137   1.703       .  A
C132        C133   1.399       .  A
C132        H143   1.083       .  S
C133        C142   1.365       .  A
C133        C134   1.387       .  A
C134        C135   1.401       .  A
C134        S140   1.709       .  A
C135        C136   1.403       .  A
C135        H144   1.082       .  S
C136        C139   1.370       .  A
S137        C138   1.723       .  A
C138        C139   1.385       .  A
C139        H145   1.083       .  S
S140        C141   1.722       .  A
C141        C142   1.385       .  A
C142        H146   1.083       .  S
C147        C152   1.388       .  A
C147        C148   1.396       .  A
C147        S153   1.700       .  A
C148        C149   1.398       .  A
C148        H159   1.083       .  S
C149        C158   1.363       .  A
C149        C150   1.388       .  A
C150        C151   1.401       .  A
C150        S156   1.709       .  A
C151        C152   1.402       .  A
C151        H160   1.083       .  S
C152        C155   1.369       .  A
S153        C154   1.720       .  A
C154        C155   1.384       .  A
C155        H161   1.083       .  S
S156        C157   1.720       .  A
C157        C158   1.382       .  A
C158        H162   1.084       .  S
C163        C168   1.388       .  A
C163        C164   1.399       .  A
C163        S169   1.700       .  A
C164        C165   1.399       .  A
C164        H175   1.083       .  S
C165        C174   1.369       .  A
C165        C166   1.387       .  A
C166        C167   1.405       .  A
C166        S172   1.708       .  A
C167        C168   1.404       .  A
C167        H176   1.083       .  S
C168        C171   1.375       .  A
S169        C170   1.722       .  A
C170        C171   1.387       .  A
C171        H177   1.083       .  S
S172        C173   1.725       .  A
C173        C174   1.383       .  A
C174        H178   1.083       .  S
C179        C184   1.386       .  A
C179        C180   1.401       .  A
C179        S185   1.705       .  A
C180        C181   1.402       .  A
C180        H191   1.083       .  S
C181        C190   1.369       .  A
C181        C182   1.387       .  A
C182        C183   1.399       .  A
C182        S188   1.704       .  A
C183        C184   1.400       .  A
C183        H192   1.083       .  S
C184        C187   1.367       .  A
S185        C186   1.727       .  A
C186        C187   1.388       .  A
C187        H193   1.083       .  S
S188        C189   1.721       .  A
C189        C190   1.386       .  A
C190        H194   1.083       .  S
C195        C200   1.385   1_554  A
C195        C196   1.399       .  A
C195        S201   1.703       .  A
C196        C197   1.400       .  A
C196        H207   1.083       .  S
C197        C206   1.368       .  A
C197        C198   1.385   1_554  A
C198        C199   1.404       .  A
C198        S204   1.707       .  A
C199        C200   1.404       .  A
C199        H208   1.083       .  S
C200        C203   1.372       .  A
S201        C202   1.727       .  A
C202        C203   1.392   1_554  A
C203        H547   1.082       .  S
S204        C205   1.730       .  A
C205        C206   1.390   1_556  A
C206        H210   1.082       .  S
H209        C541   1.082       .  S
C211        C216   1.387       .  A
C211        C212   1.400       .  A
C211        S217   1.703       .  A
C212        C213   1.400       .  A
C212        H223   1.083       .  S
C213        C222   1.369       .  A
C213        C214   1.387       .  A
C214        C215   1.402       .  A
C214        S220   1.706       .  A
C215        C216   1.403       .  A
C215        H224   1.083       .  S
C216        C219   1.372       .  A
S217        C218   1.722       .  A
C218        C219   1.386       .  A
C219        H225   1.083       .  S
S220        C221   1.725       .  A
C221        C222   1.387       .  A
C222        H226   1.083       .  S
C227        C232   1.387       .  A
C227        C228   1.400       .  A
C227        S233   1.705       .  A
C228        C229   1.401       .  A
C228        H239   1.083       .  S
C229        C238   1.368       .  A
C229        C230   1.387       .  A
C230        C231   1.403       .  A
C230        S236   1.710       .  A
C231        C232   1.404       .  A
C231        H240   1.083       .  S
C232        C235   1.371       .  A
S233        C234   1.722       .  A
C234        C235   1.387       .  A
C235        H241   1.083       .  S
S236        C237   1.721       .  A
C237        C238   1.383       .  A
C238        H242   1.083       .  S
C243        C248   1.386   1_554  A
C243        C244   1.404       .  A
C243        S249   1.706       .  A
C244        C245   1.404       .  A
C244        H255   1.083       .  S
C245        C254   1.374       .  A
C245        C246   1.386   1_554  A
C246        C247   1.400       .  A
C246        S252   1.701       .  A
C247        C248   1.400       .  A
C247        H256   1.083       .  S
C248        C251   1.369       .  A
S249        C250   1.728       .  A
C250        C251   1.387   1_554  A
C251        H257   1.083       .  S
S252        C253   1.726   1_566  A
C253        C254   1.390   1_545  A
C254        H258   1.083       .  S
C259        C264   1.387       .  A
C259        C260   1.397       .  A
C259        S265   1.705       .  A
C260        C261   1.399       .  A
C260        H271   1.083       .  S
C261        C270   1.364       .  A
C261        C262   1.387       .  A
C262        C263   1.402       .  A
C262        S268   1.712       .  A
C263        C264   1.404       .  A
C263        H272   1.083       .  S
C264        C267   1.369       .  A
S265        C266   1.720       .  A
C266        C267   1.387       .  A
C267        H273   1.083       .  S
S268        C269   1.721       .  A
C269        C270   1.382       .  A
C270        H274   1.083       .  S
C275        C280   1.386       .  A
C275        C276   1.403       .  A
C275        S281   1.709       .  A
C276        C277   1.404       .  A
C276        H287   1.083       .  S
C277        C286   1.371       .  A
C277        C278   1.387       .  A
C278        C279   1.399       .  A
C278        S284   1.705       .  A
C279        C280   1.401       .  A
C279        H288   1.083       .  S
C280        C283   1.367       .  A
S281        C282   1.726       .  A
C282        C283   1.389       .  A
C283        H289   1.083       .  S
S284        C285   1.721       .  A
C285        C286   1.387       .  A
C286        H290   1.083       .  S
C291        C292   1.404       .  A
C291        C634   1.385   1_554  A
C291        S297   1.709       .  A
C292        C293   1.405   1_655  A
C292        H303   1.083   1_655  S
C293        C302   1.372       .  A
C293        C632   1.386   1_554  A
C294        C295   1.398   1_455  A
C294        C631   1.386       .  A
C294        S300   1.702       .  A
C295        C296   1.399       .  A
C295        H304   1.083       .  S
C296        C299   1.366       .  A
C296        C629   1.385       .  A
S297        C298   1.728       .  A
C298        C637   1.388   1_554  A
C299        C636   1.388       .  A
C299        H305   1.082       .  S
S300        C639   1.725       .  A
C301        C302   1.390   1_556  A
C301        S638   1.725       .  A
C302        H306   1.082       .  S
C307        C312   1.388       .  A
C307        C308   1.398       .  A
C307        S313   1.705       .  A
C308        C309   1.400       .  A
C308        H319   1.083       .  S
C309        C318   1.365       .  A
C309        C310   1.387       .  A
C310        C311   1.401       .  A
C310        S316   1.710       .  A
C311        C312   1.403       .  A
C311        H320   1.083       .  S
C312        C315   1.369       .  A
S313        C314   1.720       .  A
C314        C315   1.384       .  A
C315        H321   1.083       .  S
S316        C317   1.721       .  A
C317        C318   1.385       .  A
C318        H322   1.083       .  S
C323        C328   1.386       .  A
C323        C324   1.399       .  A
C323        S329   1.704       .  A
C324        C325   1.400       .  A
C324        H335   1.083       .  S
C325        C334   1.367       .  A
C325        C326   1.387       .  A
C326        C327   1.402       .  A
C326        S332   1.709       .  A
C327        C328   1.403       .  A
C327        H336   1.083       .  S
C328        C331   1.370       .  A
S329        C330   1.724       .  A
C330        C331   1.390       .  A
C331        H337   1.083       .  S
S332        C333   1.723       .  A
C333        C334   1.385       .  A
C334        H338   1.083       .  S
C339        C340   1.406       .  A
C339        C636   1.483       .  S
C340        C341   1.407       .  A
C340        H345   1.083       .  S
C341        C668   1.481       .  S
C342        C343   1.399   1_554  A
C342        H346   1.084       .  S
C343        C344   1.398       .  A
C343        C652   1.469       .  S
C344        H347   1.083       .  S
C348        C349   1.410       .  A
C348        C591   1.484       .  S
C349        C350   1.409       .  A
C349        H354   1.083       .  S
C350        C351   1.404       .  A
C350        C620   1.483       .  S
C351        H355   1.083       .  S
C352        C353   1.398       .  A
C352        C604   1.471       .  S
C353        H356   1.084       .  S
C357        C362   1.410       .  A
C357        C543   1.489       .  S
C358        C359   1.401       .  A
C358        H363   1.083       .  S
C359        C575   1.469       .  S
C360        C361   1.403       .  A
C360        H364   1.084       .  S
C361        C362   1.403       .  A
C361        C559   1.478       .  S
C362        H365   1.081       .  S
O366        C381   1.263       .  A
O366       Al374   1.924       .  S
C367        C655   1.466       .  S
C367        O377   1.265       .  A
C367        O368   1.258       .  A
O368       Al370   1.872       .  S
O369        C371   1.264       .  A
O369       Al370   1.928       .  S
Al370       O378   1.915       .  S
Al370       O380   1.887       .  S
Al370       O379   1.786       .  S
C371        C607   1.463       .  S
C371        O384   1.256       .  A
O372        C382   1.264       .  A
O372       Al374   1.924       .  S
O373        C386   1.264       .  A
O373       Al383   1.929       .  S
Al374       O387   1.878       .  S
Al374       O384   1.871       .  S
Al374       O379   1.786       .  S
O375        C382   1.258       .  A
O375       Al383   1.884       .  S
O376        C385   1.258       .  A
O376       Al383   1.893       .  S
O377       Al383   1.930       .  S
O378        C385   1.262       .  A
O379       Al383   1.787       .  S
O380        C381   1.258       .  A
C381        C623   1.469       .  S
C382        C572   1.470       .  S
C385        C671   1.469       .  S
C386        C556   1.469       .  S
C386        O387   1.256       .  A
C388        C393   1.407       .  A
C388        C639   1.482       .  S
C389        C390   1.403       .  A
C389        H394   1.083       .  S
C390        C524   1.481       .  S
C391        C392   1.399       .  A
C391        H395   1.083       .  S
C392        C393   1.404       .  A
C392        C511   1.473       .  S
C393        H396   1.083       .  S
C397        C402   1.407       .  A
C397        C588   1.481       .  S
C398        C399   1.404       .  A
C398        H403   1.083       .  S
C399        C476   1.470       .  S
C400        C401   1.396       .  A
C400        H404   1.085       .  S
C401        C402   1.398       .  A
C401        C495   1.466       .  S
C402        H405   1.084       .  S
C406        C407   1.407       .  A
C406        C540   1.487       .  S
C407        C408   1.399       .  A
C407        H412   1.083       .  S
C408        C409   1.397       .  A
C408        C463   1.468       .  S
C409        H413   1.084       .  S
C410        C411   1.406       .  A
C410        C444   1.479       .  S
C411        H414   1.082       .  S
O415        C430   1.257       .  A
O415       Al423   1.879       .  S
C416        C479   1.467       .  S
C416        O426   1.257       .  A
C416        O417   1.264       .  A
O417       Al419   1.930       .  S
O418        C420   1.259       .  A
O418       Al419   1.884       .  S
Al419       O427   1.875       .  S
Al419       O429   1.919       .  S
Al419       O428   1.781       .  S
C420        C447   1.470       .  S
C420        O433   1.267       .  A
O421        C431   1.258       .  A
O421       Al423   1.888       .  S
O422        C435   1.257       .  A
O422       Al432   1.871       .  S
Al423       O436   1.940       .  S
Al423       O433   1.933       .  S
Al423       O428   1.780       .  S
O424        C431   1.262       .  A
O424       Al432   1.917       .  S
O425        C434   1.264       .  A
O425       Al432   1.928       .  S
O426       Al432   1.877       .  S
O427        C434   1.256       .  A
O428       Al432   1.782       .  S
O429        C430   1.262       .  A
C430        C460   1.465       .  S
C431        C527   1.466       .  S
C434        C492   1.461       .  S
C435        C508   1.469       .  S
C435        O436   1.267       .  A
C437        C442   1.386       .  A
C437        C438   1.402       .  A
C437        S443   1.707       .  A
C438        C439   1.402       .  A
C438        H449   1.083       .  S
C439        C448   1.371       .  A
C439        C440   1.387       .  A
C440        C441   1.400       .  A
C440        S446   1.705       .  A
C441        C442   1.401       .  A
C441        H450   1.083       .  S
C442        C445   1.368       .  A
S443        C444   1.724       .  A
C444        C445   1.388       .  A
C445        H451   1.083       .  S
S446        C447   1.723       .  A
C447        C448   1.386       .  A
C448        H452   1.083       .  S
C453        C458   1.387       .  A
C453        C454   1.402       .  A
C453        S459   1.709       .  A
C454        C455   1.404       .  A
C454        H465   1.082       .  S
C455        C464   1.370       .  A
C455        C456   1.388       .  A
C456        C457   1.398       .  A
C456        S462   1.703       .  A
C457        C458   1.399       .  A
C457        H466   1.083       .  S
C458        C461   1.365       .  A
S459        C460   1.723       .  A
C460        C461   1.383       .  A
C461        H467   1.083       .  S
S462        C463   1.718       .  A
C463        C464   1.386       .  A
C464        H468   1.083       .  S
C469        C474   1.387       .  A
C469        C470   1.398       .  A
C469        S475   1.703       .  A
C470        C471   1.399       .  A
C470        H481   1.083       .  S
C471        C480   1.365       .  A
C471        C472   1.387       .  A
C472        C473   1.402       .  A
C472        S478   1.709       .  A
C473        C474   1.403       .  A
C473        H482   1.082       .  S
C474        C477   1.370       .  A
S475        C476   1.722       .  A
C476        C477   1.385       .  A
C477        H483   1.083       .  S
S478        C479   1.722       .  A
C479        C480   1.385       .  A
C480        H484   1.083       .  S
C485        C490   1.388       .  A
C485        C486   1.396       .  A
C485        S491   1.701       .  A
C486        C487   1.398       .  A
C486        H497   1.083       .  S
C487        C496   1.362       .  A
C487        C488   1.387       .  A
C488        C489   1.401       .  A
C488        S494   1.709       .  A
C489        C490   1.402       .  A
C489        H498   1.083       .  S
C490        C493   1.369       .  A
S491        C492   1.720       .  A
C492        C493   1.384       .  A
C493        H499   1.083       .  S
S494        C495   1.720       .  A
C495        C496   1.382       .  A
C496        H500   1.084       .  S
C501        C506   1.388       .  A
C501        C502   1.399       .  A
C501        S507   1.700       .  A
C502        C503   1.399       .  A
C502        H513   1.083       .  S
C503        C512   1.369       .  A
C503        C504   1.387       .  A
C504        C505   1.405       .  A
C504        S510   1.708       .  A
C505        C506   1.404       .  A
C505        H514   1.083       .  S
C506        C509   1.375       .  A
S507        C508   1.722       .  A
C508        C509   1.387       .  A
C509        H515   1.083       .  S
S510        C511   1.725       .  A
C511        C512   1.383       .  A
C512        H516   1.083       .  S
C517        C522   1.386       .  A
C517        C518   1.401       .  A
C517        S523   1.705       .  A
C518        C519   1.402       .  A
C518        H529   1.083       .  S
C519        C528   1.369       .  A
C519        C520   1.387       .  A
C520        C521   1.399       .  A
C520        S526   1.704       .  A
C521        C522   1.400       .  A
C521        H530   1.083       .  S
C522        C525   1.367       .  A
S523        C524   1.726       .  A
C524        C525   1.388       .  A
C525        H531   1.083       .  S
S526        C527   1.721       .  A
C527        C528   1.386       .  A
C528        H532   1.083       .  S
C533        C538   1.385       .  A
C533        C534   1.399       .  A
C533        S539   1.703       .  A
C534        C535   1.400       .  A
C534        H545   1.083       .  S
C535        C544   1.368       .  A
C535        C536   1.385       .  A
C536        C537   1.403       .  A
C536        S542   1.707       .  A
C537        C538   1.404       .  A
C537        H546   1.083       .  S
C538        C541   1.372       .  A
S539        C540   1.727       .  A
C540        C541   1.392       .  A
S542        C543   1.730       .  A
C543        C544   1.390       .  A
C544        H548   1.082       .  S
C549        C554   1.387       .  A
C549        C550   1.400       .  A
C549        S555   1.703       .  A
C550        C551   1.400       .  A
C550        H561   1.083       .  S
C551        C560   1.369       .  A
C551        C552   1.387       .  A
C552        C553   1.402       .  A
C552        S558   1.706       .  A
C553        C554   1.403       .  A
C553        H562   1.083       .  S
C554        C557   1.372       .  A
S555        C556   1.722       .  A
C556        C557   1.386       .  A
C557        H563   1.083       .  S
S558        C559   1.725       .  A
C559        C560   1.387       .  A
C560        H564   1.083       .  S
C565        C570   1.387       .  A
C565        C566   1.400       .  A
C565        S571   1.705       .  A
C566        C567   1.401       .  A
C566        H577   1.083       .  S
C567        C576   1.368       .  A
C567        C568   1.387       .  A
C568        C569   1.403       .  A
C568        S574   1.710       .  A
C569        C570   1.404       .  A
C569        H578   1.083       .  S
C570        C573   1.371       .  A
S571        C572   1.722       .  A
C572        C573   1.387       .  A
C573        H579   1.083       .  S
S574        C575   1.721       .  A
C575        C576   1.383       .  A
C576        H580   1.083       .  S
C581        C586   1.386       .  A
C581        C582   1.404       .  A
C581        S587   1.706       .  A
C582        C583   1.404       .  A
C582        H593   1.083       .  S
C583        C592   1.374       .  A
C583        C584   1.386       .  A
C584        C585   1.400       .  A
C584        S590   1.701       .  A
C585        C586   1.400       .  A
C585        H594   1.083       .  S
C586        C589   1.369       .  A
S587        C588   1.728       .  A
C588        C589   1.387       .  A
C589        H595   1.083       .  S
S590        C591   1.726   1_565  A
C591        C592   1.390   1_545  A
C592        H596   1.083       .  S
C597        C602   1.387       .  A
C597        C598   1.397       .  A
C597        S603   1.705       .  A
C598        C599   1.399       .  A
C598        H609   1.083       .  S
C599        C608   1.364       .  A
C599        C600   1.387       .  A
C600        C601   1.402       .  A
C600        S606   1.712       .  A
C601        C602   1.404       .  A
C601        H610   1.083       .  S
C602        C605   1.369       .  A
S603        C604   1.720       .  A
C604        C605   1.387       .  A
C605        H611   1.083       .  S
S606        C607   1.721       .  A
C607        C608   1.382       .  A
C608        H612   1.083       .  S
C613        C618   1.386       .  A
C613        C614   1.403       .  A
C613        S619   1.710       .  A
C614        C615   1.404       .  A
C614        H625   1.083       .  S
C615        C624   1.371       .  A
C615        C616   1.387       .  A
C616        C617   1.399       .  A
C616        S622   1.705       .  A
C617        C618   1.401       .  A
C617        H626   1.083       .  S
C618        C621   1.367       .  A
S619        C620   1.726       .  A
C620        C621   1.389       .  A
C621        H627   1.083       .  S
S622        C623   1.721       .  A
C623        C624   1.387       .  A
C624        H628   1.083       .  S
C629        C630   1.404       .  A
C629        S635   1.709       .  A
C630        C631   1.405   1_655  A
C630        H641   1.083   1_655  S
C631        C640   1.372       .  A
C632        C633   1.398   1_455  A
C632        S638   1.702       .  A
C633        C634   1.399       .  A
C633        H642   1.083       .  S
C634        C637   1.366       .  A
S635        C636   1.728       .  A
C637        H643   1.082       .  S
C639        C640   1.390       .  A
C640        H644   1.082       .  S
C645        C650   1.388       .  A
C645        C646   1.399       .  A
C645        S651   1.705       .  A
C646        C647   1.400       .  A
C646        H657   1.083       .  S
C647        C656   1.366       .  A
C647        C648   1.387       .  A
C648        C649   1.401       .  A
C648        S654   1.710       .  A
C649        C650   1.403       .  A
C649        H658   1.083       .  S
C650        C653   1.369       .  A
S651        C652   1.720       .  A
C652        C653   1.385       .  A
C653        H659   1.083       .  S
S654        C655   1.721       .  A
C655        C656   1.385       .  A
C656        H660   1.083       .  S
C661        C666   1.386       .  A
C661        C662   1.399       .  A
C661        S667   1.704       .  A
C662        C663   1.400       .  A
C662        H673   1.083       .  S
C663        C672   1.367       .  A
C663        C664   1.387       .  A
C664        C665   1.402       .  A
C664        S670   1.709       .  A
C665        C666   1.403       .  A
C665        H674   1.083       .  S
C666        C669   1.370       .  A
S667        C668   1.724       .  A
C668        C669   1.390       .  A
C669        H675   1.083       .  S
S670        C671   1.723       .  A
C671        C672   1.385       .  A
C672        H676   1.083       .  S
