geometry optimzed in LAMMPS
_audit_creation_date              2020-11-30 
_audit_creation_method            'lammps2cif' 
_symmetry_space_group_name_H-M    'P1' 
_symmetry_Int_Tables_number       1 
_symmetry_cell_setting            triclinic 
loop_ 
_symmetry_equiv_pos_as_xyz 
  x,y,z 
_cell_length_a                    35.42003382227586 
_cell_length_b                    35.1687934616171 
_cell_length_c                    36.538568069105985 
_cell_angle_alpha                 90.04144853835972 
_cell_angle_beta                  90.74591951203033 
_cell_angle_gamma                 90.1511414430451 
loop_ 
_atom_site_label 
_atom_site_type_symbol 
_atom_site_fract_x 
_atom_site_fract_y 
_atom_site_fract_z 
_atom_site_charge 
C1          C  0.28367276  0.50010483  0.63781538     0.03050
C2          C  0.24952390  0.49882976  0.65687561    -0.13100
C3          C  0.21488079  0.49959492  0.63780248     0.00550
C4          C  0.21454235  0.00185329  0.59945193    -0.11630
C5          C  0.24846876  0.00281308  0.58008319     0.03040
C6          C  0.28289661  0.00133237  0.59943560    -0.11050
H7          H  0.24989110  0.49743270  0.68651663     0.08630
H8          H  0.18783875  0.00281555  0.58467311     0.06160
H9          H  0.30919017  0.00155521  0.58460124     0.06010
C10         C  0.21531528  0.00498531  0.36316197     0.03050
C11         C  0.21500184  0.00501506  0.40152726    -0.13100
C12         C  0.24892066  0.00284353  0.42167681     0.00550
C13         C  0.28333365  0.00201947  0.40308899    -0.11630
C14         C  0.28393931  0.00261308  0.36469847     0.03040
C15         C  0.24977721  0.00328978  0.34484945    -0.11050
H16         H  0.18832923  0.00625174  0.41566975     0.08630
H17         H  0.30965554  0.00091474  0.41849646     0.06160
H18         H  0.25001451  0.00288382  0.31517600     0.06010
O19         O  0.49287342  0.45801833  0.19780300    -0.57900
C20         C  0.00010923  0.07029004  0.21459009     0.74730
O21         O  0.45675365  0.98646442  0.30571550    -0.59050
C22         C  0.49419038  0.42691525  0.21525508     0.74700
C23         C  0.07089771  0.99960810  0.28838627     0.77100
Cd24       Cd  0.49768463  0.99883317  0.25276839     1.37470
O25         O  0.99698106  0.03903901  0.19751986    -0.57890
O26         O  0.06578898  0.48585162  0.25674830    -0.56700
C27         C  0.42672135  0.49800639  0.29026159     0.77060
O28         O  0.04203942  0.51301806  0.30384168    -0.59080
O29         O  0.00208304  0.06827769  0.24910601    -0.57530
O30         O  0.49624620  0.42931838  0.24976254    -0.57520
O31         O  0.42981276  0.01052619  0.25804088    -0.56690
O32         O  0.49076578  0.04139849  0.80265446    -0.57900
C33         C  0.00062411  0.42830444  0.78777339     0.74730
O34         O  0.45890074  0.48825044  0.69607006    -0.59050
C35         C  0.50153462  0.07159677  0.78703409     0.74700
C36         C  0.07232931  0.50067143  0.71293838     0.77100
Cd37       Cd  0.50088157  0.99966917  0.74950632     1.37460
O38         O  0.00902581  0.45911495  0.80397298    -0.57890
O39         O  0.06887897  0.98730045  0.74484718    -0.56700
C40         C  0.42889174  0.99808435  0.71197984     0.77060
O41         O  0.04242709  0.01255768  0.69739281    -0.59080
O42         O  0.99280894  0.43066577  0.75399008    -0.57530
O43         O  0.51268448  0.06831078  0.75446154    -0.57520
O44         O  0.43256875  0.50961027  0.74460060    -0.56690
C45         C  0.49252694  0.28338192  0.13741051     0.03050
C46         C  0.49902670  0.28347045  0.09952786    -0.13100
C47         C  0.50354715  0.24922547  0.08036163     0.00550
C48         C  0.50301308  0.21475586  0.09959740    -0.11630
C49         C  0.49598831  0.21399471  0.13730721     0.03040
C50         C  0.49072950  0.24844111  0.15597038    -0.11050
H51         H  0.50043607  0.31015231  0.08486332     0.08630
H52         H  0.50784069  0.18842632  0.08500686     0.06160
H53         H  0.48521794  0.24805190  0.18508794     0.06010
C54         C  0.00800993  0.21504968  0.86398103     0.03050
C55         C  0.00767470  0.24972089  0.84501920    -0.13100
C56         C  0.00673922  0.28432595  0.86416846     0.00550
C57         C  0.00475523  0.28388508  0.90254838    -0.11630
C58         C  0.00517571  0.24941309  0.92183711     0.03040
C59         C  0.00728973  0.21510953  0.90235088    -0.11050
H60         H  0.00811948  0.24973727  0.81535348     0.08630
H61         H  0.00256527  0.31041894  0.91744547     0.06160
H62         H  0.00818259  0.18836243  0.91703302     0.06010
C63         C  0.50577386  0.24893135  0.03984792    -0.06210
C64         C  0.47866682  0.22764804  0.02025928    -0.17340
C65         C  0.47717559  0.22797853  0.98201200     0.10990
C66         C  0.00401977  0.24940913  0.96241516    -0.06130
C67         C  0.03120852  0.27067893  0.98197543    -0.17370
C68         C  0.03259880  0.27044195  0.02031313     0.11020
S69         S  0.43915551  0.20193178  0.96013524    -0.32330
S70         S  0.07011993  0.29695494  0.04242827    -0.32340
H71         H  0.07382634  0.27272018  0.07284890     0.29030
H72         H  0.43439317  0.22725948  0.93067661     0.29030
H73         H  0.45758622  0.21156284  0.03497832     0.19620
H74         H  0.05215549  0.28688185  0.96720903     0.19620
C75         C  0.50180330  0.10875813  0.80584913    -0.06210
C76         C  0.03195743  0.13381061  0.79954376    -0.17340
C77         C  0.03520749  0.16827758  0.81851490     0.10990
C78         C  0.50719585  0.17852605  0.84386590    -0.06130
C79         C  0.47669261  0.15379556  0.84963548    -0.17370
C80         C  0.47342133  0.11940652  0.83063265     0.11020
S81         S  0.07651870  0.19696517  0.81024836    -0.32330
S82         S  0.43135469  0.09153808  0.83772559    -0.32340
H83         H  0.42743332  0.07999383  0.80098107     0.29030
H84         H  0.07945004  0.21199839  0.84584569     0.29030
H85         H  0.05389639  0.12588450  0.78059536     0.19620
H86         H  0.45467541  0.16185390  0.86846446     0.19620
C87         C  0.00097670  0.39144258  0.80719153    -0.06210
C88         C  0.02792692  0.38599944  0.83517225    -0.17340
C89         C  0.03150756  0.35103600  0.85306242     0.10990
C90         C  0.00651116  0.32093494  0.84401638    -0.06130
C91         C  0.47959586  0.32632260  0.81594443    -0.17370
C92         C  0.47645647  0.36110297  0.79758253     0.11020
S93         S  0.06987821  0.34620179  0.88568437    -0.32330
S94         S  0.43944096  0.36528779  0.76346773    -0.32340
H95         H  0.42906807  0.40240864  0.77354650     0.29030
H96         H  0.07672528  0.30756896  0.87837578     0.29030
H97         H  0.04738007  0.40875154  0.84225100     0.19620
H98         H  0.46009482  0.30358716  0.80897805     0.19620
C99         C  0.49002914  0.31967413  0.15817555    -0.06210
C100        C  0.01224639  0.32370049  0.19007668    -0.17340
C101        C  0.01401368  0.35807776  0.20919960     0.10990
C102        C  0.49330142  0.38975820  0.19627271    -0.06130
C103        C  0.47057464  0.38568024  0.16475490    -0.17370
C104        C  0.46791815  0.35088366  0.14619368     0.11020
S105        S  0.04509690  0.36012949  0.24855024    -0.32330
S106        S  0.43421948  0.34780082  0.10885668    -0.32340
H107        H  0.42548305  0.30916826  0.11415333     0.29030
H108        H  0.06000498  0.39581534  0.23913506     0.29030
H109        H  0.02954498  0.30023379  0.19952625     0.19620
H110        H  0.45378730  0.40946533  0.15516664     0.19620
C111        C  0.99541088  0.17732821  0.15749573    -0.06210
C112        C  0.01742192  0.17391247  0.18960286    -0.17340
C113        C  0.02005832  0.13940035  0.20849846     0.10990
C114        C  0.00022251  0.10716986  0.19516208    -0.06130
C115        C  0.47813436  0.11060819  0.16318180    -0.17370
C116        C  0.47476538  0.14531920  0.14479069     0.11020
S117        S  0.05050746  0.13816384  0.24842719    -0.32330
S118        S  0.44187068  0.14717747  0.10670033    -0.32340
H119        H  0.43081898  0.18506157  0.11256664     0.29030
H120        H  0.06581995  0.10224260  0.24054033     0.29030
H121        H  0.03360346  0.19807655  0.19951562     0.19620
H122        H  0.46206752  0.08638147  0.15320467     0.19620
C123        C  0.38993893  0.49776609  0.30880006    -0.06210
C124        C  0.36520535  0.02823518  0.30240320    -0.17340
C125        C  0.33090110  0.03094980  0.32071262     0.10990
C126        C  0.32039072  0.50202491  0.34543061    -0.06130
C127        C  0.34485395  0.47127710  0.35146204    -0.17370
C128        C  0.37918514  0.46858317  0.33314159     0.11020
S129        S  0.30269968  0.07280115  0.31244153    -0.32330
S130        S  0.40684912  0.42625346  0.34047393    -0.32340
H131        H  0.41829106  0.42296551  0.30386878     0.29030
H132        H  0.28803729  0.07513619  0.34795303     0.29030
H133        H  0.37322559  0.05083122  0.28386691     0.19620
H134        H  0.33665646  0.44866626  0.36991676     0.19620
C135        C  0.10862643  0.00087833  0.30613866    -0.06210
C136        C  0.11898032  0.03356938  0.32599899    -0.17340
C137        C  0.15432416  0.03641305  0.34340571     0.10990
C138        C  0.17942506  0.00534826  0.34223318    -0.06130
C139        C  0.16927351  0.47279732  0.32228162    -0.17370
C140        C  0.13444171  0.47038775  0.30400178     0.11020
S141        S  0.16605465  0.08057113  0.36602694    -0.32330
S142        S  0.12337227  0.42650554  0.28102410    -0.32340
H143        H  0.12263424  0.44357384  0.24621574     0.29030
H144        H  0.20521031  0.07842417  0.36046625     0.29030
H145        H  0.09971010  0.05738809  0.32733275     0.19620
H146        H  0.18835603  0.44878791  0.32154323     0.19620
C147        C  0.17880046  0.49931220  0.65777219    -0.06210
C148        C  0.15433972  0.03033594  0.65328124    -0.17340
C149        C  0.12010242  0.03215962  0.67182497     0.10990
C150        C  0.10933372  0.50179750  0.69478263    -0.06130
C151        C  0.13415956  0.47114645  0.69991639    -0.17300
C152        C  0.16846937  0.46934454  0.68141077     0.11020
S153        S  0.09254691  0.07488106  0.66657240    -0.32330
S154        S  0.19686295  0.42732938  0.68794306    -0.32340
H155        H  0.21146054  0.42659944  0.65234676     0.29030
H156        H  0.08105276  0.07621935  0.70327535     0.29030
H157        H  0.16244261  0.05379105  0.63578007     0.19620
H158        H  0.12617646  0.44772794  0.71749826     0.19620
C159        C  0.32038537  0.99978357  0.65765967    -0.06210
C160        C  0.34657423  0.47132451  0.64911662    -0.17340
C161        C  0.38168975  0.46936307  0.66696800     0.10990
C162        C  0.39147163  0.99698305  0.69359871    -0.06130
C163        C  0.36500486  0.02501916  0.70262169    -0.17370
C164        C  0.32994573  0.02707681  0.68467977     0.11020
S165        S  0.41173816  0.42984982  0.65580417    -0.32330
S166        S  0.29969848  0.06636638  0.69624841    -0.32340
H167        H  0.28470712  0.07137328  0.66075070     0.29030
H168        H  0.42392035  0.42348897  0.69209413     0.29030
H169        H  0.33924370  0.44993053  0.62883106     0.19620
H170        H  0.37221456  0.04642689  0.72292553     0.19620
C171        C  0.24788153  0.00428182  0.53952847    -0.06210
C172        C  0.22802650  0.47589947  0.52023267    -0.17340
C173        C  0.22843795  0.47425441  0.48197606     0.10990
C174        C  0.24857989  0.00208388  0.46220486    -0.06130
C175        C  0.26828324  0.03057667  0.48147333    -0.17370
C176        C  0.26780880  0.03227089  0.51972720     0.11020
S177        S  0.20407139  0.43499477  0.46026065    -0.32330
S178        S  0.29192293  0.07171506  0.54139512    -0.32340
H179        H  0.26704848  0.07492612  0.57092348     0.29030
H180        H  0.22926181  0.43123178  0.43105234     0.29030
H181        H  0.21301222  0.45409301  0.53517012     0.19620
H182        H  0.28339465  0.05229483  0.46650729     0.19620
C183        C  0.28365581  0.00010484  0.63781703     0.03050
C184        C  0.24950582  0.99882993  0.65687535    -0.13100
C185        C  0.21486379  0.99959519  0.63780030     0.00550
C186        C  0.21455708  0.50185269  0.59945412    -0.11630
C187        C  0.24848225  0.50281244  0.58008343     0.03040
C188        C  0.28291129  0.50133202  0.59943391    -0.11050
H189        H  0.24987132  0.99743258  0.68651635     0.08630
H190        H  0.18785260  0.50281499  0.58467681     0.06160
H191        H  0.30920394  0.50155505  0.58459807     0.06010
C192        C  0.21531614  0.50498510  0.36316301     0.03050
C193        C  0.21500398  0.50501519  0.40152837    -0.13100
C194        C  0.24892354  0.50284387  0.42167685     0.00550
C195        C  0.28333583  0.50201958  0.40308789    -0.11630
C196        C  0.28394020  0.50261282  0.36469737     0.03040
C197        C  0.24977748  0.50328946  0.34484941    -0.11050
H198        H  0.18833188  0.50625192  0.41567173     0.08630
H199        H  0.30965824  0.50091491  0.41849452     0.06160
H200        H  0.25001383  0.50288326  0.31517595     0.06010
O201        O  0.49287163  0.95801821  0.19780324    -0.57900
C202        C  0.00011048  0.57029019  0.21458978     0.74730
O203        O  0.45675405  0.48646453  0.30571454    -0.59050
C204        C  0.49418909  0.92691509  0.21525524     0.74700
C205        C  0.07089833  0.49960816  0.28838727     0.77100
Cd206      Cd  0.49768580  0.49883338  0.25276814     1.37470
O207        O  0.99698297  0.53903910  0.19751955    -0.57890
O208        O  0.06578787  0.98585148  0.25674740    -0.56700
C209        C  0.42672077  0.99800645  0.29026300     0.77060
O210        O  0.04203903  0.01301786  0.30384117    -0.59080
O211        O  0.00208375  0.56827793  0.24910573    -0.57530
O212        O  0.49624529  0.92931817  0.24976270    -0.57520
O213        O  0.42981378  0.51052623  0.25803956    -0.56690
O214        O  0.49077946  0.54139781  0.80265457    -0.57900
C215        C  0.00061130  0.92830465  0.78777354     0.74730
O216        O  0.45888238  0.98825010  0.69607188    -0.59050
C217        C  0.50154730  0.57159661  0.78703447     0.74700
C218        C  0.07231131  0.00067096  0.71293490     0.77100
Cd219      Cd  0.50089776  0.49966910  0.74950651     1.37460
O220        O  0.00901213  0.95911557  0.80397282    -0.57890
O221        O  0.06889579  0.48730093  0.74485053    -0.56700
C222        C  0.42890959  0.49808502  0.71197697     0.77060
O223        O  0.04244560  0.51255775  0.69739508    -0.59080
O224        O  0.99279500  0.93066559  0.75399045    -0.57530
O225        O  0.51269827  0.56831114  0.75446224    -0.57520
O226        O  0.43255201  0.00960985  0.74460329    -0.56690
C227        C  0.49252659  0.78338198  0.13741026     0.03050
C228        C  0.49902634  0.78347061  0.09952761    -0.13100
C229        C  0.50354714  0.74922569  0.08036135     0.00550
C230        C  0.50301339  0.71475606  0.09959710    -0.11630
C231        C  0.49598856  0.71399481  0.13730690     0.03040
C232        C  0.49072942  0.74844113  0.15597009    -0.11050
H233        H  0.50043545  0.81015250  0.08486309     0.08630
H234        H  0.50784127  0.68842657  0.08500656     0.06160
H235        H  0.48521785  0.74805184  0.18508765     0.06010
C236        C  0.00801206  0.71505021  0.86398085     0.03050
C237        C  0.00767456  0.74972140  0.84501898    -0.13100
C238        C  0.00673681  0.78432638  0.86416823     0.00550
C239        C  0.00475305  0.78388538  0.90254816    -0.11630
C240        C  0.00517573  0.74941342  0.92183687     0.03040
C241        C  0.00729176  0.71511000  0.90235069    -0.11050
H242        H  0.00811933  0.74973781  0.81535326     0.08630
H243        H  0.00256152  0.81041909  0.91744527     0.06160
H244        H  0.00818618  0.68836297  0.91703287     0.06010
C245        C  0.50577390  0.74893161  0.03984762    -0.06210
C246        C  0.47866743  0.72764757  0.02025896    -0.17340
C247        C  0.47717626  0.72797798  0.98201168     0.10990
C248        C  0.00401983  0.74940938  0.96241489    -0.06130
C249        C  0.03120801  0.77067990  0.98197514    -0.17370
C250        C  0.03259834  0.77044287  0.02031284     0.11020
S251        S  0.43915712  0.70192994  0.96013480    -0.32330
S252        S  0.07011897  0.79695659  0.04242796    -0.32340
H253        H  0.07382597  0.77272177  0.07284849     0.29030
H254        H  0.43439415  0.72725733  0.93067602     0.29030
H255        H  0.45758723  0.71156181  0.03497797     0.19620
H256        H  0.05215453  0.78688340  0.96720872     0.19620
C257        C  0.50181338  0.60875803  0.80584939    -0.06210
C258        C  0.03196605  0.63381242  0.79954447    -0.17340
C259        C  0.03521346  0.66827975  0.81851539     0.10990
C260        C  0.50720062  0.67852653  0.84386578    -0.06130
C261        C  0.47669881  0.65379413  0.84963488    -0.17370
C262        C  0.47343013  0.61940480  0.83063219     0.11020
S263        S  0.07652291  0.69697009  0.81024937    -0.32330
S264        S  0.43136496  0.59153383  0.83772428    -0.32340
H265        H  0.42744500  0.57998954  0.80097964     0.29030
H266        H  0.07945260  0.71200378  0.84584663     0.29030
H267        H  0.05390592  0.62588763  0.78059655     0.19620
H268        H  0.45468070  0.66185117  0.86846336     0.19620
C269        C  0.00096637  0.89144280  0.80719170    -0.06210
C270        C  0.02791743  0.88600130  0.83517198    -0.17340
C271        C  0.03150066  0.85103802  0.85306196     0.10990
C272        C  0.00650611  0.82093536  0.84401617    -0.06130
C273        C  0.47958998  0.82632134  0.81594467    -0.17370
C274        C  0.47644797  0.86110161  0.79758298     0.11020
S275        S  0.06987212  0.84620622  0.88568336    -0.32330
S276        S  0.43943160  0.86528412  0.76346879    -0.32340
H277        H  0.42905644  0.90240420  0.77354792     0.29030
H278        H  0.07672151  0.80757383  0.87837466     0.29030
H279        H  0.04736924  0.90875464  0.84225050     0.19620
H280        H  0.46009034  0.80358463  0.80897851     0.19620
C281        C  0.49002857  0.81967413  0.15817538    -0.06210
C282        C  0.01224579  0.82370054  0.19007651    -0.17340
C283        C  0.01401284  0.85807774  0.20919955     0.10990
C284        C  0.49330033  0.88975808  0.19627279    -0.06130
C285        C  0.47057359  0.88568007  0.16475495    -0.17370
C286        C  0.46791737  0.85088355  0.14619360     0.11020
S287        S  0.04509611  0.86012954  0.24855015    -0.32330
S288        S  0.43421877  0.84780063  0.10885654    -0.32340
H289        H  0.42548257  0.80916800  0.11415306     0.29030
H290        H  0.06000402  0.89581546  0.23913497     0.29030
H291        H  0.02954457  0.80023393  0.19952599     0.19620
H292        H  0.45378610  0.90946508  0.15516676     0.19620
C293        C  0.99541142  0.67732829  0.15749539    -0.06210
C294        C  0.01742242  0.67391273  0.18960257    -0.17340
C295        C  0.02005905  0.63940062  0.20849817     0.10990
C296        C  0.00022357  0.60716997  0.19516173    -0.06130
C297        C  0.47813547  0.61060811  0.16318139    -0.17370
C298        C  0.47476622  0.64531911  0.14479030     0.11020
S299        S  0.05050804  0.63816436  0.24842701    -0.32330
S300        S  0.44187155  0.64717712  0.10669990    -0.32340
H301        H  0.43081952  0.68506112  0.11256623     0.29030
H302        H  0.06582068  0.60224313  0.24054036     0.29030
H303        H  0.03360373  0.69807694  0.19951538     0.19620
H304        H  0.46206885  0.58638126  0.15320424     0.19620
C305        C  0.38993863  0.99776651  0.30880203    -0.06210
C306        C  0.36520551  0.52823463  0.30240111    -0.17340
C307        C  0.33090124  0.53094913  0.32071052     0.10990
C308        C  0.32039040  0.00202556  0.34543262    -0.06130
C309        C  0.34485366  0.97127779  0.35146423    -0.17370
C310        C  0.37918486  0.96858375  0.33314376     0.11020
S311        S  0.30269968  0.57280038  0.31243947    -0.32330
S312        S  0.40684876  0.92625401  0.34047619    -0.32340
H313        H  0.41829030  0.92296570  0.30387094     0.29030
H314        H  0.28803772  0.57513570  0.34795112     0.29030
H315        H  0.37322573  0.55083073  0.28386488     0.19620
H316        H  0.33665606  0.94866695  0.36991890     0.19620
C317        C  0.10862676  0.50087810  0.30614031    -0.06210
C318        C  0.11898061  0.53356900  0.32600090    -0.17340
C319        C  0.15432442  0.53641256  0.34340775     0.10990
C320        C  0.17942533  0.50534777  0.34223511    -0.06130
C321        C  0.16927334  0.97279780  0.32227969    -0.17370
C322        C  0.13444150  0.97038810  0.30399995     0.11020
S323        S  0.16605496  0.58057061  0.36602899    -0.32330
S324        S  0.12337209  0.92650581  0.28102242    -0.32340
H325        H  0.12263312  0.94357414  0.24621408     0.29030
H326        H  0.20521057  0.57842385  0.36046791     0.29030
H327        H  0.09971046  0.55738778  0.32733460     0.19620
H328        H  0.18835588  0.94878838  0.32154142     0.19620
C329        C  0.17878231  0.99931162  0.65776815    -0.06210
C330        C  0.15435832  0.53033699  0.65328611    -0.17340
C331        C  0.12012130  0.53216085  0.67183021     0.10990
C332        C  0.10931510  0.00179657  0.69477789    -0.06130
C333        C  0.13414102  0.97114562  0.69991180    -0.17300
C334        C  0.16845100  0.96934386  0.68140651     0.11020
S335        S  0.09256623  0.57488269  0.66657844    -0.32330
S336        S  0.19684469  0.92732883  0.68793916    -0.32340
H337        H  0.21144312  0.92659929  0.65234318     0.29030
H338        H  0.08107110  0.57621978  0.70328114     0.29030
H339        H  0.16246117  0.55379211  0.63578493     0.19620
H340        H  0.12615804  0.94772722  0.71749385     0.19620
C341        C  0.32040337  0.49978464  0.65765625    -0.06210
C342        C  0.34655587  0.97132284  0.64912087    -0.17340
C343        C  0.38167114  0.96936123  0.66697259     0.10990
C344        C  0.39149003  0.49698442  0.69359467    -0.06130
C345        C  0.36502322  0.52502042  0.70261781    -0.17370
C346        C  0.32996397  0.52707796  0.68467619     0.11020
S347        S  0.41171915  0.92984736  0.65580966    -0.32330
S348        S  0.29971669  0.56636740  0.69624521    -0.32340
H349        H  0.28472439  0.57137380  0.66074780     0.29030
H350        H  0.42390217  0.92348792  0.69209960     0.29030
H351        H  0.33922538  0.94992878  0.62883537     0.19620
H352        H  0.37223283  0.54642797  0.72292186     0.19620
C353        C  0.24789226  0.50428143  0.53952871    -0.06210
C354        C  0.22801733  0.97589957  0.52023137    -0.17340
C355        C  0.22843176  0.97425400  0.48197486     0.10990
C356        C  0.24858461  0.50208448  0.46220495    -0.06130
C357        C  0.26828931  0.53057711  0.48147238    -0.17370
C358        C  0.26781783  0.53227085  0.51972632     0.11020
S359        S  0.20406688  0.93499406  0.46025818    -0.32330
S360        S  0.29193344  0.57171485  0.54139298    -0.32340
H361        H  0.26706105  0.57492566  0.57092302     0.29030
H362        H  0.22925911  0.93123125  0.43105131     0.29030
H363        H  0.21300193  0.95409327  0.53516799     0.19620
H364        H  0.28339966  0.55229540  0.46650550     0.19620
C365        C  0.78367276  0.50010482  0.63781538     0.03050
C366        C  0.74952389  0.49882975  0.65687561    -0.13100
C367        C  0.71488079  0.49959492  0.63780248     0.00550
C368        C  0.71454235  0.00185329  0.59945193    -0.11630
C369        C  0.74846876  0.00281308  0.58008320     0.03040
C370        C  0.78289661  0.00133238  0.59943560    -0.11050
H371        H  0.74989110  0.49743269  0.68651663     0.08630
H372        H  0.68783875  0.00281555  0.58467311     0.06160
H373        H  0.80919017  0.00155521  0.58460124     0.06010
C374        C  0.71531528  0.00498532  0.36316197     0.03050
C375        C  0.71500184  0.00501507  0.40152726    -0.13100
C376        C  0.74892066  0.00284353  0.42167681     0.00550
C377        C  0.78333365  0.00201948  0.40308899    -0.11630
C378        C  0.78393931  0.00261308  0.36469847     0.03040
C379        C  0.74977721  0.00328979  0.34484945    -0.11050
H380        H  0.68832923  0.00625174  0.41566975     0.08630
H381        H  0.80965554  0.00091475  0.41849646     0.06160
H382        H  0.75001451  0.00288383  0.31517600     0.06010
O383        O  0.99287343  0.45801833  0.19780300    -0.57900
C384        C  0.50010923  0.07029004  0.21459009     0.74730
O385        O  0.95675365  0.98646442  0.30571550    -0.59050
C386        C  0.99419037  0.42691525  0.21525507     0.74700
C387        C  0.57089771  0.99960810  0.28838626     0.77100
Cd388      Cd  0.99768463  0.99883317  0.25276839     1.37470
O389        O  0.49698106  0.03903901  0.19751986    -0.57890
O390        O  0.56578899  0.48585163  0.25674830    -0.56700
C391        C  0.92672135  0.49800639  0.29026159     0.77060
O392        O  0.54203942  0.51301805  0.30384168    -0.59080
O393        O  0.50208304  0.06827769  0.24910601    -0.57530
O394        O  0.99624619  0.42931838  0.24976254    -0.57520
O395        O  0.92981276  0.01052620  0.25804089    -0.56690
O396        O  0.99076578  0.04139848  0.80265446    -0.57900
C397        C  0.50062411  0.42830445  0.78777340     0.74730
O398        O  0.95890074  0.48825044  0.69607006    -0.59050
C399        C  0.00153462  0.07159677  0.78703409     0.74700
C400        C  0.57232931  0.50067143  0.71293838     0.77100
Cd401      Cd  0.00088157  0.99966916  0.74950632     1.37460
O402        O  0.50902580  0.45911496  0.80397298    -0.57890
O403        O  0.56887896  0.98730044  0.74484718    -0.56700
C404        C  0.92889174  0.99808434  0.71197984     0.77060
O405        O  0.54242709  0.01255769  0.69739281    -0.59080
O406        O  0.49280893  0.43066578  0.75399009    -0.57530
O407        O  0.01268447  0.06831078  0.75446153    -0.57520
O408        O  0.93256875  0.50961026  0.74460060    -0.56690
C409        C  0.99252693  0.28338192  0.13741051     0.03050
C410        C  0.99902670  0.28347046  0.09952786    -0.13100
C411        C  0.00354715  0.24922548  0.08036163     0.00550
C412        C  0.00301308  0.21475586  0.09959739    -0.11630
C413        C  0.99598830  0.21399471  0.13730721     0.03040
C414        C  0.99072949  0.24844111  0.15597038    -0.11050
H415        H  0.00043607  0.31015231  0.08486332     0.08630
H416        H  0.00784069  0.18842632  0.08500686     0.06160
H417        H  0.98521793  0.24805190  0.18508794     0.06010
C418        C  0.50800992  0.21504968  0.86398103     0.03050
C419        C  0.50767469  0.24972090  0.84501920    -0.13100
C420        C  0.50673921  0.28432596  0.86416846     0.00550
C421        C  0.50475521  0.28388508  0.90254838    -0.11630
C422        C  0.50517570  0.24941309  0.92183711     0.03040
C423        C  0.50728972  0.21510954  0.90235088    -0.11050
H424        H  0.50811947  0.24973728  0.81535348     0.08630
H425        H  0.50256526  0.31041895  0.91744548     0.06160
H426        H  0.50818258  0.18836243  0.91703302     0.06010
C427        C  0.00577386  0.24893135  0.03984792    -0.06210
C428        C  0.97866683  0.22764804  0.02025928    -0.17340
C429        C  0.97717559  0.22797853  0.98201200     0.10990
C430        C  0.50401976  0.24940913  0.96241516    -0.06130
C431        C  0.53120851  0.27067893  0.98197543    -0.17370
C432        C  0.53259880  0.27044195  0.02031313     0.11020
S433        S  0.93915551  0.20193178  0.96013523    -0.32330
S434        S  0.57011992  0.29695494  0.04242827    -0.32340
H435        H  0.57382634  0.27272017  0.07284889     0.29030
H436        H  0.93439318  0.22725948  0.93067661     0.29030
H437        H  0.95758623  0.21156285  0.03497832     0.19620
H438        H  0.55215548  0.28688186  0.96720903     0.19620
C439        C  0.00180330  0.10875812  0.80584913    -0.06210
C440        C  0.53195743  0.13381061  0.79954377    -0.17340
C441        C  0.53520749  0.16827758  0.81851490     0.10990
C442        C  0.00719586  0.17852604  0.84386591    -0.06130
C443        C  0.97669262  0.15379555  0.84963549    -0.17370
C444        C  0.97342134  0.11940652  0.83063266     0.11020
S445        S  0.57651870  0.19696517  0.81024837    -0.32330
S446        S  0.93135471  0.09153807  0.83772561    -0.32340
H447        H  0.92743333  0.07999382  0.80098109     0.29030
H448        H  0.57945003  0.21199839  0.84584571     0.29030
H449        H  0.55389640  0.12588449  0.78059537     0.19620
H450        H  0.95467543  0.16185389  0.86846447     0.19620
C451        C  0.50097669  0.39144258  0.80719153    -0.06210
C452        C  0.52792691  0.38599944  0.83517225    -0.17340
C453        C  0.53150755  0.35103600  0.85306242     0.10990
C454        C  0.50651115  0.32093495  0.84401638    -0.06130
C455        C  0.97959587  0.32632259  0.81594443    -0.17370
C456        C  0.97645648  0.36110297  0.79758253     0.11020
S457        S  0.56987820  0.34620179  0.88568437    -0.32330
S458        S  0.93944098  0.36528778  0.76346772    -0.32340
H459        H  0.92906808  0.40240862  0.77354649     0.29030
H460        H  0.57672527  0.30756895  0.87837578     0.29030
H461        H  0.54738006  0.40875154  0.84225100     0.19620
H462        H  0.96009484  0.30358715  0.80897804     0.19620
C463        C  0.99002914  0.31967413  0.15817555    -0.06210
C464        C  0.51224640  0.32370049  0.19007668    -0.17340
C465        C  0.51401369  0.35807776  0.20919959     0.10990
C466        C  0.99330142  0.38975820  0.19627271    -0.06130
C467        C  0.97057464  0.38568024  0.16475489    -0.17370
C468        C  0.96791815  0.35088366  0.14619367     0.11020
S469        S  0.54509692  0.36012950  0.24855023    -0.32330
S470        S  0.93421948  0.34780083  0.10885667    -0.32340
H471        H  0.92548305  0.30916827  0.11415331     0.29030
H472        H  0.56000500  0.39581535  0.23913505     0.29030
H473        H  0.52954500  0.30023379  0.19952624     0.19620
H474        H  0.95378731  0.40946533  0.15516663     0.19620
C475        C  0.49541088  0.17732821  0.15749573    -0.06210
C476        C  0.51742192  0.17391247  0.18960286    -0.17340
C477        C  0.52005832  0.13940034  0.20849846     0.10990
C478        C  0.50022251  0.10716986  0.19516208    -0.06130
C479        C  0.97813436  0.11060819  0.16318179    -0.17370
C480        C  0.97476538  0.14531920  0.14479069     0.11020
S481        S  0.55050747  0.13816383  0.24842718    -0.32330
S482        S  0.94187068  0.14717747  0.10670033    -0.32340
H483        H  0.93081898  0.18506157  0.11256664     0.29030
H484        H  0.56581995  0.10224259  0.24054032     0.29030
H485        H  0.53360347  0.19807654  0.19951562     0.19620
H486        H  0.96206752  0.08638147  0.15320467     0.19620
C487        C  0.88993893  0.49776609  0.30880006    -0.06210
C488        C  0.86520535  0.02823518  0.30240320    -0.17340
C489        C  0.83090111  0.03094980  0.32071262     0.10990
C490        C  0.82039072  0.50202491  0.34543061    -0.06130
C491        C  0.84485395  0.47127710  0.35146204    -0.17370
C492        C  0.87918514  0.46858317  0.33314159     0.11020
S493        S  0.80269968  0.07280115  0.31244154    -0.32330
S494        S  0.90684912  0.42625346  0.34047393    -0.32340
H495        H  0.91829106  0.42296552  0.30386878     0.29030
H496        H  0.78803729  0.07513620  0.34795304     0.29030
H497        H  0.87322559  0.05083123  0.28386691     0.19620
H498        H  0.83665646  0.44866627  0.36991676     0.19620
C499        C  0.60862643  0.00087833  0.30613866    -0.06210
C500        C  0.61898030  0.03356936  0.32599902    -0.17340
C501        C  0.65432415  0.03641304  0.34340574     0.10990
C502        C  0.67942506  0.00534827  0.34223318    -0.06130
C503        C  0.66927352  0.47279735  0.32228159    -0.17370
C504        C  0.63444173  0.47038778  0.30400174     0.11020
S505        S  0.66605461  0.08057111  0.36602701    -0.32330
S506        S  0.62337231  0.42650558  0.28102402    -0.32340
H507        H  0.62263428  0.44357391  0.24621568     0.29030
H508        H  0.70521027  0.07842417  0.36046631     0.29030
H509        H  0.59971007  0.05738807  0.32733280     0.19620
H510        H  0.68835607  0.44878794  0.32154318     0.19620
C511        C  0.67880046  0.49931220  0.65777219    -0.06210
C512        C  0.65433973  0.03033595  0.65328126    -0.17340
C513        C  0.62010243  0.03215963  0.67182499     0.10990
C514        C  0.60933372  0.50179750  0.69478263    -0.06130
C515        C  0.63415955  0.47114644  0.69991638    -0.17300
C516        C  0.66846936  0.46934452  0.68141075     0.11020
S517        S  0.59254693  0.07488108  0.66657244    -0.32330
S518        S  0.69686293  0.42732935  0.68794303    -0.32340
H519        H  0.71146052  0.42659943  0.65234672     0.29030
H520        H  0.58105277  0.07621935  0.70327540     0.29030
H521        H  0.66244262  0.05379106  0.63578010     0.19620
H522        H  0.62617644  0.44772792  0.71749823     0.19620
C523        C  0.82038537  0.99978357  0.65765967    -0.06210
C524        C  0.84657423  0.47132451  0.64911662    -0.17340
C525        C  0.88168975  0.46936307  0.66696800     0.10990
C526        C  0.89147163  0.99698305  0.69359871    -0.06130
C527        C  0.86500486  0.02501915  0.70262169    -0.17370
C528        C  0.82994573  0.02707680  0.68467977     0.11020
S529        S  0.91173816  0.42984982  0.65580417    -0.32330
S530        S  0.79969847  0.06636637  0.69624842    -0.32340
H531        H  0.78470711  0.07137327  0.66075071     0.29030
H532        H  0.92392035  0.42348896  0.69209413     0.29030
H533        H  0.83924370  0.44993053  0.62883106     0.19620
H534        H  0.87221456  0.04642688  0.72292554     0.19620
C535        C  0.74788153  0.00428182  0.53952847    -0.06210
C536        C  0.72802650  0.47589947  0.52023268    -0.17340
C537        C  0.72843795  0.47425441  0.48197606     0.10990
C538        C  0.74857989  0.00208388  0.46220487    -0.06130
C539        C  0.76828324  0.03057667  0.48147334    -0.17370
C540        C  0.76780880  0.03227089  0.51972720     0.11020
S541        S  0.70407138  0.43499478  0.46026066    -0.32330
S542        S  0.79192293  0.07171506  0.54139512    -0.32340
H543        H  0.76704848  0.07492612  0.57092349     0.29030
H544        H  0.72926181  0.43123178  0.43105235     0.29030
H545        H  0.71301222  0.45409301  0.53517012     0.19620
H546        H  0.78339465  0.05229483  0.46650730     0.19620
C547        C  0.78365581  0.00010484  0.63781704     0.03050
C548        C  0.74950581  0.99882993  0.65687535    -0.13100
C549        C  0.71486378  0.99959519  0.63780030     0.00550
C550        C  0.71455708  0.50185270  0.59945412    -0.11630
C551        C  0.74848225  0.50281244  0.58008343     0.03040
C552        C  0.78291129  0.50133202  0.59943392    -0.11050
H553        H  0.74987131  0.99743257  0.68651636     0.08630
H554        H  0.68785260  0.50281500  0.58467681     0.06160
H555        H  0.80920394  0.50155505  0.58459807     0.06010
C556        C  0.71531614  0.50498511  0.36316301     0.03050
C557        C  0.71500398  0.50501519  0.40152837    -0.13100
C558        C  0.74892354  0.50284387  0.42167685     0.00550
C559        C  0.78333583  0.50201959  0.40308789    -0.11630
C560        C  0.78394020  0.50261283  0.36469738     0.03040
C561        C  0.74977748  0.50328946  0.34484942    -0.11050
H562        H  0.68833188  0.50625192  0.41567173     0.08630
H563        H  0.80965824  0.50091491  0.41849452     0.06160
H564        H  0.75001384  0.50288327  0.31517595     0.06010
O565        O  0.99287163  0.95801821  0.19780324    -0.57900
C566        C  0.50011048  0.57029019  0.21458978     0.74730
O567        O  0.95675405  0.48646453  0.30571454    -0.59050
C568        C  0.99418909  0.92691510  0.21525524     0.74700
C569        C  0.57089833  0.49960816  0.28838727     0.77100
Cd570      Cd  0.99768580  0.49883338  0.25276814     1.37470
O571        O  0.49698297  0.53903910  0.19751955    -0.57890
O572        O  0.56578788  0.98585149  0.25674739    -0.56700
C573        C  0.92672077  0.99800645  0.29026301     0.77060
O574        O  0.54203902  0.01301785  0.30384117    -0.59080
O575        O  0.50208375  0.56827792  0.24910573    -0.57530
O576        O  0.99624529  0.92931818  0.24976270    -0.57520
O577        O  0.92981378  0.51052624  0.25803956    -0.56690
O578        O  0.99077946  0.54139780  0.80265457    -0.57900
C579        C  0.50061130  0.92830466  0.78777355     0.74730
O580        O  0.95888237  0.98825010  0.69607187    -0.59050
C581        C  0.00154730  0.57159660  0.78703447     0.74700
C582        C  0.57231131  0.00067096  0.71293491     0.77100
Cd583      Cd  0.00089776  0.49966910  0.74950651     1.37460
O584        O  0.50901213  0.95911557  0.80397283    -0.57890
O585        O  0.56889579  0.48730092  0.74485052    -0.56700
C586        C  0.92890959  0.49808502  0.71197697     0.77060
O587        O  0.54244560  0.51255776  0.69739508    -0.59080
O588        O  0.49279500  0.93066560  0.75399045    -0.57530
O589        O  0.01269826  0.56831113  0.75446224    -0.57520
O590        O  0.93255201  0.00960985  0.74460330    -0.56690
C591        C  0.99252658  0.78338198  0.13741026     0.03050
C592        C  0.99902634  0.78347061  0.09952761    -0.13100
C593        C  0.00354714  0.74922569  0.08036134     0.00550
C594        C  0.00301339  0.71475606  0.09959710    -0.11630
C595        C  0.99598855  0.71399481  0.13730690     0.03040
C596        C  0.99072942  0.74844114  0.15597009    -0.11050
H597        H  0.00043545  0.81015250  0.08486309     0.08630
H598        H  0.00784127  0.68842657  0.08500656     0.06160
H599        H  0.98521784  0.74805185  0.18508764     0.06010
C600        C  0.50801205  0.71505021  0.86398085     0.03050
C601        C  0.50767455  0.74972140  0.84501898    -0.13100
C602        C  0.50673680  0.78432638  0.86416823     0.00550
C603        C  0.50475305  0.78388538  0.90254816    -0.11630
C604        C  0.50517572  0.74941342  0.92183687     0.03040
C605        C  0.50729175  0.71511000  0.90235069    -0.11050
H606        H  0.50811933  0.74973782  0.81535326     0.08630
H607        H  0.50256151  0.81041909  0.91744527     0.06160
H608        H  0.50818618  0.68836297  0.91703287     0.06010
C609        C  0.00577390  0.74893161  0.03984762    -0.06210
C610        C  0.97866743  0.72764758  0.02025896    -0.17340
C611        C  0.97717626  0.72797798  0.98201168     0.10990
C612        C  0.50401982  0.74940938  0.96241489    -0.06130
C613        C  0.53120800  0.77067990  0.98197514    -0.17370
C614        C  0.53259834  0.77044287  0.02031284     0.11020
S615        S  0.93915713  0.70192995  0.96013480    -0.32330
S616        S  0.57011896  0.79695658  0.04242796    -0.32340
H617        H  0.57382597  0.77272177  0.07284848     0.29030
H618        H  0.93439415  0.72725733  0.93067601     0.29030
H619        H  0.95758723  0.71156181  0.03497797     0.19620
H620        H  0.55215452  0.78688340  0.96720872     0.19620
C621        C  0.00181338  0.60875802  0.80584939    -0.06210
C622        C  0.53196605  0.63381242  0.79954447    -0.17340
C623        C  0.53521346  0.66827975  0.81851540     0.10990
C624        C  0.00720063  0.67852652  0.84386578    -0.06130
C625        C  0.97669882  0.65379413  0.84963489    -0.17370
C626        C  0.97343013  0.61940479  0.83063220     0.11020
S627        S  0.57652291  0.69697009  0.81024939    -0.32330
S628        S  0.93136497  0.59153382  0.83772430    -0.32340
H629        H  0.92744500  0.57998953  0.80097966     0.29030
H630        H  0.57945259  0.71200378  0.84584665     0.29030
H631        H  0.55390593  0.62588763  0.78059656     0.19620
H632        H  0.95468071  0.66185116  0.86846337     0.19620
C633        C  0.50096636  0.89144281  0.80719171    -0.06210
C634        C  0.52791742  0.88600130  0.83517198    -0.17340
C635        C  0.53150065  0.85103803  0.85306196     0.10990
C636        C  0.50650610  0.82093536  0.84401618    -0.06130
C637        C  0.97958999  0.82632134  0.81594467    -0.17370
C638        C  0.97644798  0.86110161  0.79758297     0.11020
S639        S  0.56987212  0.84620622  0.88568336    -0.32330
S640        S  0.93943160  0.86528411  0.76346878    -0.32340
H641        H  0.92905645  0.90240419  0.77354791     0.29030
H642        H  0.57672151  0.80757383  0.87837466     0.29030
H643        H  0.54736923  0.90875464  0.84225050     0.19620
H644        H  0.96009035  0.80358463  0.80897851     0.19620
C645        C  0.99002857  0.81967414  0.15817537    -0.06210
C646        C  0.51224581  0.82370054  0.19007651    -0.17340
C647        C  0.51401285  0.85807774  0.20919954     0.10990
C648        C  0.99330033  0.88975809  0.19627279    -0.06130
C649        C  0.97057359  0.88568008  0.16475495    -0.17370
C650        C  0.96791737  0.85088356  0.14619359     0.11020
S651        S  0.54509613  0.86012955  0.24855014    -0.32330
S652        S  0.93421877  0.84780064  0.10885653    -0.32340
H653        H  0.92548257  0.80916801  0.11415305     0.29030
H654        H  0.56000403  0.89581547  0.23913496     0.29030
H655        H  0.52954458  0.80023394  0.19952599     0.19620
H656        H  0.95378610  0.90946508  0.15516675     0.19620
C657        C  0.49541142  0.67732829  0.15749539    -0.06210
C658        C  0.51742242  0.67391272  0.18960257    -0.17340
C659        C  0.52005906  0.63940062  0.20849817     0.10990
C660        C  0.50022357  0.60716997  0.19516173    -0.06130
C661        C  0.97813548  0.61060811  0.16318139    -0.17370
C662        C  0.97476622  0.64531911  0.14479029     0.11020
S663        S  0.55050805  0.63816435  0.24842700    -0.32330
S664        S  0.94187155  0.64717712  0.10669989    -0.32340
H665        H  0.93081952  0.68506112  0.11256622     0.29030
H666        H  0.56582068  0.60224312  0.24054036     0.29030
H667        H  0.53360374  0.69807693  0.19951538     0.19620
H668        H  0.96206886  0.58638125  0.15320423     0.19620
C669        C  0.88993863  0.99776652  0.30880203    -0.06210
C670        C  0.86520551  0.52823463  0.30240111    -0.17340
C671        C  0.83090125  0.53094913  0.32071052     0.10990
C672        C  0.82039040  0.00202556  0.34543263    -0.06130
C673        C  0.84485366  0.97127779  0.35146424    -0.17370
C674        C  0.87918486  0.96858376  0.33314376     0.11020
S675        S  0.80269968  0.57280039  0.31243947    -0.32330
S676        S  0.90684876  0.92625402  0.34047619    -0.32340
H677        H  0.91829030  0.92296571  0.30387095     0.29030
H678        H  0.78803772  0.57513570  0.34795112     0.29030
H679        H  0.87322574  0.55083073  0.28386489     0.19620
H680        H  0.83665606  0.94866696  0.36991890     0.19620
C681        C  0.60862677  0.50087810  0.30614031    -0.06210
C682        C  0.61898059  0.53356899  0.32600092    -0.17340
C683        C  0.65432441  0.53641255  0.34340778     0.10990
C684        C  0.67942533  0.50534778  0.34223511    -0.06130
C685        C  0.66927336  0.97279782  0.32227966    -0.17370
C686        C  0.63444152  0.97038812  0.30399992     0.11020
S687        S  0.66605492  0.58057059  0.36602906    -0.32330
S688        S  0.62337214  0.92650585  0.28102234    -0.32340
H689        H  0.62263315  0.94357421  0.24621402     0.29030
H690        H  0.70521053  0.57842385  0.36046797     0.29030
H691        H  0.59971043  0.55738776  0.32733465     0.19620
H692        H  0.68835591  0.94878841  0.32154137     0.19620
C693        C  0.67878231  0.99931162  0.65776815    -0.06210
C694        C  0.65435833  0.53033699  0.65328612    -0.17340
C695        C  0.62012131  0.53216085  0.67183022     0.10990
C696        C  0.60931510  0.00179657  0.69477790    -0.06130
C697        C  0.63414101  0.97114561  0.69991178    -0.17300
C698        C  0.66845099  0.96934384  0.68140649     0.11020
S699        S  0.59256625  0.57488270  0.66657848    -0.32330
S700        S  0.69684467  0.92732881  0.68793913    -0.32340
H701        H  0.71144311  0.92659929  0.65234315     0.29030
H702        H  0.58107112  0.57621978  0.70328119     0.29030
H703        H  0.66246118  0.55379212  0.63578496     0.19620
H704        H  0.62615803  0.94772720  0.71749383     0.19620
C705        C  0.82040336  0.49978464  0.65765626    -0.06210
C706        C  0.84655587  0.97132284  0.64912087    -0.17340
C707        C  0.88167114  0.96936123  0.66697259     0.10990
C708        C  0.89149003  0.49698441  0.69359468    -0.06130
C709        C  0.86502322  0.52502041  0.70261782    -0.17370
C710        C  0.82996396  0.52707795  0.68467619     0.11020
S711        S  0.91171915  0.92984737  0.65580966    -0.32330
S712        S  0.79971668  0.56636739  0.69624522    -0.32340
H713        H  0.78472438  0.57137379  0.66074781     0.29030
H714        H  0.92390217  0.92348792  0.69209960     0.29030
H715        H  0.83922538  0.94992878  0.62883537     0.19620
H716        H  0.87223283  0.54642796  0.72292186     0.19620
C717        C  0.74789226  0.50428143  0.53952872    -0.06210
C718        C  0.72801733  0.97589957  0.52023138    -0.17340
C719        C  0.72843176  0.97425401  0.48197486     0.10990
C720        C  0.74858462  0.50208448  0.46220495    -0.06130
C721        C  0.76828932  0.53057711  0.48147238    -0.17370
C722        C  0.76781783  0.53227085  0.51972633     0.11020
S723        S  0.70406687  0.93499407  0.46025818    -0.32330
S724        S  0.79193344  0.57171485  0.54139299    -0.32340
H725        H  0.76706106  0.57492566  0.57092302     0.29030
H726        H  0.72925911  0.93123126  0.43105132     0.29030
H727        H  0.71300193  0.95409327  0.53516799     0.19620
H728        H  0.78339966  0.55229540  0.46650551     0.19620
loop_ 
_geom_bond_atom_site_label_1 
_geom_bond_atom_site_label_2 
_geom_bond_distance 
_geom_bond_site_symmetry_2 
_ccdc_geom_bond_type 
C1            C2   1.404       .  A
C1          C188   1.403       .  A
C1          C341   1.481       .  S
C2            C3   1.404       .  A
C2            H7   1.084       .  S
C3          C186   1.403       .  A
C3          C147   1.480       .  S
C4            C5   1.403       .  A
C4          C185   1.403   1_545  A
C4            H8   1.084       .  S
C5            C6   1.403       .  A
C5          C171   1.483       .  S
C6          C183   1.403       .  A
C6            H9   1.084       .  S
C10          C11   1.402       .  A
C10          C15   1.401       .  A
C10         C138   1.475       .  S
C11          C12   1.403       .  A
C11          H16   1.084       .  S
C12          C13   1.403       .  A
C12         C174   1.481       .  S
C13          C14   1.403       .  A
C13          H17   1.084       .  S
C14          C15   1.403       .  A
C14         C308   1.479       .  S
C15          H18   1.084       .  S
O19          C22   1.267       .  A
O19        Cd206   2.472       .  S
C20         C114   1.479       .  S
C20          O29   1.264       .  A
C20          O25   1.267   1_455  A
O21         C209   1.266       .  A
O21         Cd24   2.471       .  S
C22         C102   1.479       .  S
C22          O30   1.265       .  A
C23         C135   1.478   1_565  S
C23         O210   1.266   1_565  A
C23         O208   1.264       .  A
Cd24         O31   2.450   1_565  S
Cd24        O201   2.472       .  S
Cd24        O212   2.448       .  S
Cd24        O393   2.451   1_565  S
Cd24        O389   2.465   1_565  S
Cd24        O574   2.473   1_565  S
Cd24        O572   2.459       .  S
O25        Cd388   2.465   1_545  S
O26         C205   1.264       .  A
O26        Cd570   2.459   1_455  S
C27         C123   1.476       .  S
C27         O203   1.266       .  A
C27         O213   1.263       .  A
O28         C205   1.266       .  A
O28        Cd570   2.473   1_455  S
O29        Cd388   2.451   1_445  S
O30        Cd206   2.448       .  S
O31         C209   1.263   1_545  A
O32          C35   1.266       .  A
O32         Cd37   2.464   1_545  S
C33          C87   1.478       .  S
C33          O42   1.264   1_455  A
C33          O38   1.267       .  A
O34         C222   1.266       .  A
O34        Cd219   2.471       .  S
C35          C75   1.476       .  S
C35          O43   1.264       .  A
C36         C150   1.477       .  S
C36         O223   1.267       .  A
C36         O221   1.265       .  A
Cd37         O43   2.455   1_565  S
Cd37        O216   2.471       .  S
Cd37        O226   2.451   1_565  S
Cd37        O588   2.449       .  S
Cd37        O584   2.464       .  S
Cd37        O405   2.463   1_565  S
Cd37        O403   2.457       .  S
O38        Cd583   2.464       .  S
O39         C218   1.265   1_565  A
O39        Cd401   2.457       .  S
C40         C162   1.478       .  S
C40         O216   1.266       .  A
C40         O226   1.264   1_565  A
O41         C218   1.267       .  A
O41        Cd401   2.463   1_545  S
O42        Cd583   2.449   1_655  S
O44         C222   1.264       .  A
O44        Cd219   2.451       .  S
C45          C46   1.406       .  A
C45          C50   1.406       .  A
C45          C99   1.488       .  S
C46          C47   1.403       .  A
C46          H51   1.082       .  S
C47          C48   1.402       .  A
C47          C63   1.483       .  S
C48          C49   1.404       .  A
C48          H52   1.083       .  S
C49          C50   1.404       .  A
C49         C475   1.486       .  S
C50          H53   1.084       .  S
C54          C55   1.403       .  A
C54          C59   1.403       .  A
C54         C442   1.479       .  S
C55          C56   1.404       .  A
C55          H60   1.084       .  S
C56          C57   1.405       .  A
C56          C90   1.484       .  S
C57          C58   1.403       .  A
C57          H61   1.083       .  S
C58          C59   1.403       .  A
C58          C66   1.484       .  S
C59          H62   1.084       .  S
C63          C64   1.404       .  A
C63         C432   1.414       .  A
C64          C65   1.398   1_554  A
C64          H73   1.084       .  S
C65         C430   1.414       .  A
C65          S69   1.804       .  S
C66          C67   1.405       .  A
C66         C429   1.414   1_455  A
C67          C68   1.401   1_556  A
C67          H74   1.084       .  S
C68         C427   1.414       .  A
C68          S70   1.804       .  S
S69          H72   1.406       .  S
S70          H71   1.406       .  S
C75          C80   1.413       .  A
C75         C440   1.404       .  A
C76          C77   1.400       .  A
C76         C439   1.404       .  A
C76          H85   1.084       .  S
C77         C442   1.413       .  A
C77          S81   1.804       .  S
C78          C79   1.403       .  A
C78         C441   1.413       .  A
C78         C418   1.479       .  S
C79          C80   1.398       .  A
C79          H86   1.085       .  S
C80          S82   1.803       .  S
S81          H84   1.406       .  S
S82          H83   1.407       .  S
C87          C88   1.403       .  A
C87         C456   1.415   1_455  A
C88          C89   1.398       .  A
C88          H97   1.084       .  S
C89          C90   1.414       .  A
C89          S93   1.804       .  S
C90         C455   1.404   1_455  A
C91          C92   1.400       .  A
C91         C454   1.404       .  A
C91          H98   1.083       .  S
C92         C451   1.415       .  A
C92          S94   1.804       .  S
S93          H96   1.407       .  S
S94          H95   1.407       .  S
C99         C104   1.416       .  A
C99         C464   1.405       .  A
C100        C101   1.397       .  A
C100        C463   1.405   1_455  A
C100        H109   1.083       .  S
C101        C466   1.414   1_455  A
C101        S105   1.801       .  S
C102        C103   1.403       .  A
C102        C465   1.414       .  A
C103        C104   1.401       .  A
C103        H110   1.083       .  S
C104        S106   1.804       .  S
S105        H108   1.405       .  S
S106        H107   1.407       .  S
C111        C112   1.405   1_655  A
C111        C480   1.415       .  A
C111        C413   1.486       .  S
C112        C113   1.400       .  A
C112        H121   1.083       .  S
C113        C114   1.415       .  A
C113        S117   1.804       .  S
C114        C479   1.403   1_455  A
C115        C116   1.399       .  A
C115        C478   1.403       .  A
C115        H122   1.084       .  S
C116        C475   1.415       .  A
C116        S118   1.805       .  S
S117        H120   1.407       .  S
S118        H119   1.407       .  S
C123        C128   1.413       .  A
C123        C306   1.404       .  A
C124        C125   1.398       .  A
C124        C305   1.404   1_545  A
C124        H133   1.084       .  S
C125        C308   1.413       .  A
C125        S129   1.804       .  S
C126        C127   1.403       .  A
C126        C307   1.413       .  A
C126        C196   1.479       .  S
C127        C128   1.399       .  A
C127        H134   1.084       .  S
C128        S130   1.803       .  S
S129        H132   1.406       .  S
S130        H131   1.407       .  S
C135        C136   1.404       .  A
C135        C322   1.414   1_545  A
C136        C137   1.400       .  A
C136        H145   1.083       .  S
C137        C138   1.411       .  A
C137        S141   1.804       .  S
C138        C321   1.400   1_545  A
C139        C140   1.398       .  A
C139        C320   1.400       .  A
C139        H146   1.084       .  S
C140        C317   1.414       .  A
C140        S142   1.796       .  S
S141        H144   1.407       .  S
S142        H143   1.407       .  S
C147        C152   1.414       .  A
C147        C330   1.403       .  A
C148        C149   1.398       .  A
C148        C329   1.403   1_545  A
C148        H157   1.084       .  S
C149        C332   1.413       .  A
C149        S153   1.803       .  S
C150        C151   1.404       .  A
C150        C331   1.413       .  A
C151        C152   1.400       .  A
C151        H158   1.084       .  S
C152        S154   1.804       .  S
S153        H156   1.407       .  S
S154        H155   1.406       .  S
C159        C164   1.414   1_565  A
C159        C342   1.404       .  A
C159        C183   1.481   1_565  S
C160        C161   1.399       .  A
C160        C341   1.404       .  A
C160        H169   1.084       .  S
C161        C344   1.414       .  A
C161        S165   1.802       .  S
C162        C163   1.404   1_565  A
C162        C343   1.414       .  A
C163        C164   1.399       .  A
C163        H170   1.084       .  S
C164        S166   1.804       .  S
S165        H168   1.407       .  S
S166        H167   1.406       .  S
C171        C176   1.415       .  A
C171        C354   1.404   1_545  A
C172        C173   1.399       .  A
C172        C353   1.404       .  A
C172        H181   1.084       .  S
C173        C356   1.414       .  A
C173        S177   1.804       .  S
C174        C175   1.403       .  A
C174        C355   1.414   1_545  A
C175        C176   1.399       .  A
C175        H182   1.084       .  S
C176        S178   1.804       .  S
S177        H180   1.406       .  S
S178        H179   1.406       .  S
C183        C184   1.404   1_545  A
C184        C185   1.404       .  A
C184        H189   1.084       .  S
C185        C329   1.480       .  S
C186        C187   1.403       .  A
C186        H190   1.084       .  S
C187        C188   1.403       .  A
C187        C353   1.483       .  S
C188        H191   1.084       .  S
C192        C193   1.402       .  A
C192        C197   1.401       .  A
C192        C320   1.475       .  S
C193        C194   1.403       .  A
C193        H198   1.084       .  S
C194        C195   1.403       .  A
C194        C356   1.481       .  S
C195        C196   1.403       .  A
C195        H199   1.084       .  S
C196        C197   1.403       .  A
C197        H200   1.084       .  S
O201        C204   1.267       .  A
C202        C296   1.479       .  S
C202        O211   1.264       .  A
C202        O207   1.267   1_455  A
O203       Cd206   2.471       .  S
C204        C284   1.479       .  S
C204        O212   1.265       .  A
C205        C317   1.478       .  S
Cd206       O213   2.450       .  S
Cd206       O575   2.451       .  S
Cd206       O571   2.465       .  S
Cd206       O392   2.473       .  S
Cd206       O390   2.459       .  S
O207       Cd570   2.465       .  S
O208       Cd388   2.459   1_455  S
C209        C305   1.476       .  S
O210       Cd388   2.473   1_445  S
O211       Cd570   2.451   1_455  S
O214        C217   1.266       .  A
O214       Cd219   2.464       .  S
C215        C269   1.478       .  S
C215        O224   1.264   1_455  A
C215        O220   1.267       .  A
C217        C257   1.476       .  S
C217        O225   1.264       .  A
C218        C332   1.477       .  S
Cd219       O225   2.455       .  S
Cd219       O406   2.449       .  S
Cd219       O402   2.464       .  S
Cd219       O587   2.463       .  S
Cd219       O585   2.457       .  S
O220       Cd401   2.464       .  S
O221       Cd583   2.457       .  S
C222        C344   1.478       .  S
O223       Cd583   2.463       .  S
O224       Cd401   2.449   1_655  S
C227        C228   1.406       .  A
C227        C232   1.406       .  A
C227        C281   1.488       .  S
C228        C229   1.403       .  A
C228        H233   1.082       .  S
C229        C230   1.402       .  A
C229        C245   1.483       .  S
C230        C231   1.404       .  A
C230        H234   1.083       .  S
C231        C232   1.404       .  A
C231        C657   1.486       .  S
C232        H235   1.084       .  S
C236        C237   1.403       .  A
C236        C241   1.403       .  A
C236        C624   1.479       .  S
C237        C238   1.404       .  A
C237        H242   1.084       .  S
C238        C239   1.405       .  A
C238        C272   1.484       .  S
C239        C240   1.403       .  A
C239        H243   1.083       .  S
C240        C241   1.403       .  A
C240        C248   1.484       .  S
C241        H244   1.084       .  S
C245        C246   1.404       .  A
C245        C614   1.414       .  A
C246        C247   1.398   1_554  A
C246        H255   1.084       .  S
C247        C612   1.414       .  A
C247        S251   1.804       .  S
C248        C611   1.414   1_455  A
C248        C249   1.405       .  A
C249        C250   1.401   1_556  A
C249        H256   1.084       .  S
C250        C609   1.414       .  A
C250        S252   1.804       .  S
S251        H254   1.406       .  S
S252        H253   1.406       .  S
C257        C622   1.404       .  A
C257        C262   1.413       .  A
C258        C621   1.404       .  A
C258        C259   1.400       .  A
C258        H267   1.084       .  S
C259        C624   1.413       .  A
C259        S263   1.804       .  S
C260        C623   1.413       .  A
C260        C261   1.403       .  A
C260        C600   1.479       .  S
C261        C262   1.398       .  A
C261        H268   1.085       .  S
C262        S264   1.803       .  S
S263        H266   1.406       .  S
S264        H265   1.407       .  S
C269        C270   1.403       .  A
C269        C638   1.415   1_455  A
C270        C271   1.398       .  A
C270        H279   1.084       .  S
C271        C272   1.414       .  A
C271        S275   1.804       .  S
C272        C637   1.404   1_455  A
C273        C636   1.404       .  A
C273        C274   1.400       .  A
C273        H280   1.083       .  S
C274        C633   1.415       .  A
C274        S276   1.804       .  S
S275        H278   1.407       .  S
S276        H277   1.407       .  S
C281        C646   1.405       .  A
C281        C286   1.416       .  A
C282        C645   1.405   1_455  A
C282        C283   1.397       .  A
C282        H291   1.083       .  S
C283        C648   1.414   1_455  A
C283        S287   1.801       .  S
C284        C647   1.414       .  A
C284        C285   1.403       .  A
C285        C286   1.401       .  A
C285        H292   1.083       .  S
C286        S288   1.804       .  S
S287        H290   1.405       .  S
S288        H289   1.407       .  S
C293        C294   1.405   1_655  A
C293        C662   1.415       .  A
C293        C595   1.486       .  S
C294        C295   1.400       .  A
C294        H303   1.083       .  S
C295        C296   1.415       .  A
C295        S299   1.804       .  S
C296        C661   1.403   1_455  A
C297        C660   1.403       .  A
C297        C298   1.399       .  A
C297        H304   1.084       .  S
C298        C657   1.415       .  A
C298        S300   1.805       .  S
S299        H302   1.407       .  S
S300        H301   1.407       .  S
C305        C310   1.413       .  A
C306        C307   1.398       .  A
C306        H315   1.084       .  S
C307        S311   1.804       .  S
C308        C309   1.403   1_545  A
C309        C310   1.399       .  A
C309        H316   1.084       .  S
C310        S312   1.803       .  S
S311        H314   1.406       .  S
S312        H313   1.407       .  S
C317        C318   1.404       .  A
C318        C319   1.400       .  A
C318        H327   1.083       .  S
C319        C320   1.411       .  A
C319        S323   1.804       .  S
C321        C322   1.398       .  A
C321        H328   1.084       .  S
C322        S324   1.796       .  S
S323        H326   1.407       .  S
S324        H325   1.407       .  S
C329        C334   1.414       .  A
C330        C331   1.398       .  A
C330        H339   1.084       .  S
C331        S335   1.803       .  S
C332        C333   1.404   1_545  A
C333        C334   1.400       .  A
C333        H340   1.084       .  S
C334        S336   1.804       .  S
S335        H338   1.407       .  S
S336        H337   1.406       .  S
C341        C346   1.414       .  A
C342        C343   1.399       .  A
C342        H351   1.084       .  S
C343        S347   1.802       .  S
C344        C345   1.404       .  A
C345        C346   1.399       .  A
C345        H352   1.084       .  S
C346        S348   1.804       .  S
S347        H350   1.407       .  S
S348        H349   1.406       .  S
C353        C358   1.415       .  A
C354        C355   1.399       .  A
C354        H363   1.084       .  S
C355        S359   1.804       .  S
C356        C357   1.403       .  A
C357        C358   1.399       .  A
C357        H364   1.084       .  S
C358        S360   1.804       .  S
S359        H362   1.406       .  S
S360        H361   1.406       .  S
C365        C366   1.404       .  A
C365        C552   1.403       .  A
C365        C705   1.481       .  S
C366        C367   1.404       .  A
C366        H371   1.084       .  S
C367        C550   1.403       .  A
C367        C511   1.480       .  S
C368        C549   1.403   1_545  A
C368        C369   1.403       .  A
C368        H372   1.084       .  S
C369        C370   1.403       .  A
C369        C535   1.483       .  S
C370        C547   1.403       .  A
C370        H373   1.084       .  S
C374        C375   1.402       .  A
C374        C379   1.401       .  A
C374        C502   1.475       .  S
C375        C376   1.403       .  A
C375        H380   1.084       .  S
C376        C377   1.403       .  A
C376        C538   1.481       .  S
C377        C378   1.403       .  A
C377        H381   1.084       .  S
C378        C379   1.403       .  A
C378        C672   1.479       .  S
C379        H382   1.084       .  S
O383        C386   1.267       .  A
O383       Cd570   2.472       .  S
C384        C478   1.479       .  S
C384        O393   1.264       .  A
C384        O389   1.267       .  A
O385        C573   1.266       .  A
O385       Cd388   2.471       .  S
C386        C466   1.479       .  S
C386        O394   1.265       .  A
C387        C499   1.478   1_565  S
C387        O574   1.266   1_565  A
C387        O572   1.264       .  A
Cd388       O565   2.472       .  S
Cd388       O395   2.450   1_565  S
Cd388       O576   2.448       .  S
O390        C569   1.264       .  A
C391        C487   1.476       .  S
C391        O567   1.266       .  A
C391        O577   1.263       .  A
O392        C569   1.266       .  A
O394       Cd570   2.448       .  S
O395        C573   1.263   1_545  A
O396        C399   1.266   1_655  A
O396       Cd401   2.464   1_645  S
C397        C451   1.478       .  S
C397        O406   1.264       .  A
C397        O402   1.267       .  A
O398        C586   1.266       .  A
O398       Cd583   2.471   1_655  S
C399        C439   1.476       .  S
C399        O407   1.264       .  A
C400        C514   1.477       .  S
C400        O587   1.267       .  A
C400        O585   1.265       .  A
Cd401       O580   2.471   1_455  S
Cd401       O590   2.451   1_465  S
Cd401       O407   2.455   1_565  S
O403        C582   1.265   1_565  A
C404        C526   1.478       .  S
C404        O580   1.266       .  A
C404        O590   1.264   1_565  A
O405        C582   1.267       .  A
O408        C586   1.264       .  A
O408       Cd583   2.451   1_655  S
C409        C410   1.406       .  A
C409        C414   1.406       .  A
C409        C463   1.488       .  S
C410        C411   1.403   1_655  A
C410        H415   1.082   1_655  S
C411        C412   1.402       .  A
C411        C427   1.483       .  S
C412        C413   1.404   1_455  A
C412        H416   1.083       .  S
C413        C414   1.404       .  A
C414        H417   1.084       .  S
C418        C419   1.403       .  A
C418        C423   1.403       .  A
C419        C420   1.404       .  A
C419        H424   1.084       .  S
C420        C421   1.405       .  A
C420        C454   1.484       .  S
C421        C422   1.403       .  A
C421        H425   1.083       .  S
C422        C423   1.403       .  A
C422        C430   1.484       .  S
C423        H426   1.084       .  S
C427        C428   1.404   1_455  A
C428        C429   1.398   1_554  A
C428        H437   1.084       .  S
C429        S433   1.804       .  S
C430        C431   1.405       .  A
C431        C432   1.401   1_556  A
C431        H438   1.084       .  S
C432        S434   1.804       .  S
S433        H436   1.406       .  S
S434        H435   1.406       .  S
C439        C444   1.413   1_455  A
C440        C441   1.400       .  A
C440        H449   1.084       .  S
C441        S445   1.804       .  S
C442        C443   1.403   1_455  A
C443        C444   1.398       .  A
C443        H450   1.085       .  S
C444        S446   1.803       .  S
S445        H448   1.406       .  S
S446        H447   1.407       .  S
C451        C452   1.403       .  A
C452        C453   1.398       .  A
C452        H461   1.084       .  S
C453        C454   1.414       .  A
C453        S457   1.804       .  S
C455        C456   1.400       .  A
C455        H462   1.083       .  S
C456        S458   1.804       .  S
S457        H460   1.407       .  S
S458        H459   1.407       .  S
C463        C468   1.416       .  A
C464        C465   1.397       .  A
C464        H473   1.083       .  S
C465        S469   1.801       .  S
C466        C467   1.403       .  A
C467        C468   1.401       .  A
C467        H474   1.083       .  S
C468        S470   1.804       .  S
S469        H472   1.405       .  S
S470        H471   1.407       .  S
C475        C476   1.405       .  A
C476        C477   1.400       .  A
C476        H485   1.083       .  S
C477        C478   1.415       .  A
C477        S481   1.804       .  S
C479        C480   1.399       .  A
C479        H486   1.084       .  S
C480        S482   1.805       .  S
S481        H484   1.407       .  S
S482        H483   1.407       .  S
C487        C670   1.404       .  A
C487        C492   1.413       .  A
C488        C669   1.404   1_545  A
C488        C489   1.398       .  A
C488        H497   1.084       .  S
C489        C672   1.413       .  A
C489        S493   1.804       .  S
C490        C671   1.413       .  A
C490        C491   1.403       .  A
C490        C560   1.479       .  S
C491        C492   1.399       .  A
C491        H498   1.084       .  S
C492        S494   1.803       .  S
S493        H496   1.406       .  S
S494        H495   1.407       .  S
C499        C500   1.404       .  A
C499        C686   1.414   1_545  A
C500        C501   1.400       .  A
C500        H509   1.083       .  S
C501        C502   1.411       .  A
C501        S505   1.804       .  S
C502        C685   1.400   1_545  A
C503        C684   1.400       .  A
C503        C504   1.398       .  A
C503        H510   1.084       .  S
C504        C681   1.414       .  A
C504        S506   1.796       .  S
S505        H508   1.407       .  S
S506        H507   1.407       .  S
C511        C694   1.403       .  A
C511        C516   1.414       .  A
C512        C693   1.403   1_545  A
C512        C513   1.398       .  A
C512        H521   1.084       .  S
C513        C696   1.413       .  A
C513        S517   1.803       .  S
C514        C695   1.413       .  A
C514        C515   1.404       .  A
C515        C516   1.400       .  A
C515        H522   1.084       .  S
C516        S518   1.804       .  S
S517        H520   1.407       .  S
S518        H519   1.406       .  S
C523        C706   1.404       .  A
C523        C528   1.414   1_565  A
C523        C547   1.481   1_565  S
C524        C705   1.404       .  A
C524        C525   1.399       .  A
C524        H533   1.084       .  S
C525        C708   1.414       .  A
C525        S529   1.802       .  S
C526        C707   1.414       .  A
C526        C527   1.404   1_565  A
C527        C528   1.399       .  A
C527        H534   1.084       .  S
C528        S530   1.804       .  S
S529        H532   1.407       .  S
S530        H531   1.406       .  S
C535        C718   1.404   1_545  A
C535        C540   1.415       .  A
C536        C717   1.404       .  A
C536        C537   1.399       .  A
C536        H545   1.084       .  S
C537        C720   1.414       .  A
C537        S541   1.804       .  S
C538        C719   1.414   1_545  A
C538        C539   1.403       .  A
C539        C540   1.399       .  A
C539        H546   1.084       .  S
C540        S542   1.804       .  S
S541        H544   1.406       .  S
S542        H543   1.406       .  S
C547        C548   1.404   1_545  A
C548        C549   1.404       .  A
C548        H553   1.084       .  S
C549        C693   1.480       .  S
C550        C551   1.403       .  A
C550        H554   1.084       .  S
C551        C552   1.403       .  A
C551        C717   1.483       .  S
C552        H555   1.084       .  S
C556        C557   1.402       .  A
C556        C561   1.401       .  A
C556        C684   1.475       .  S
C557        C558   1.403       .  A
C557        H562   1.084       .  S
C558        C559   1.403       .  A
C558        C720   1.481       .  S
C559        C560   1.403       .  A
C559        H563   1.084       .  S
C560        C561   1.403       .  A
C561        H564   1.084       .  S
O565        C568   1.267       .  A
C566        C660   1.479       .  S
C566        O575   1.264       .  A
C566        O571   1.267       .  A
O567       Cd570   2.471       .  S
C568        C648   1.479       .  S
C568        O576   1.265       .  A
C569        C681   1.478       .  S
Cd570       O577   2.450       .  S
C573        C669   1.476       .  S
O578        C581   1.266   1_655  A
O578       Cd583   2.464   1_655  S
C579        C633   1.478       .  S
C579        O588   1.264       .  A
C579        O584   1.267       .  A
C581        C621   1.476       .  S
C581        O589   1.264       .  A
C582        C696   1.477       .  S
Cd583       O589   2.455       .  S
C586        C708   1.478       .  S
C591        C592   1.406       .  A
C591        C596   1.406       .  A
C591        C645   1.488       .  S
C592        C593   1.403   1_655  A
C592        H597   1.082   1_655  S
C593        C594   1.402       .  A
C593        C609   1.483       .  S
C594        C595   1.404   1_455  A
C594        H598   1.083       .  S
C595        C596   1.404       .  A
C596        H599   1.084       .  S
C600        C601   1.403       .  A
C600        C605   1.403       .  A
C601        C602   1.404       .  A
C601        H606   1.084       .  S
C602        C603   1.405       .  A
C602        C636   1.484       .  S
C603        C604   1.403       .  A
C603        H607   1.083       .  S
C604        C605   1.403       .  A
C604        C612   1.484       .  S
C605        H608   1.084       .  S
C609        C610   1.404   1_455  A
C610        C611   1.398   1_554  A
C610        H619   1.084       .  S
C611        S615   1.804       .  S
C612        C613   1.405       .  A
C613        C614   1.401   1_556  A
C613        H620   1.084       .  S
C614        S616   1.804       .  S
S615        H618   1.406       .  S
S616        H617   1.406       .  S
C621        C626   1.413   1_455  A
C622        C623   1.400       .  A
C622        H631   1.084       .  S
C623        S627   1.804       .  S
C624        C625   1.403   1_455  A
C625        C626   1.398       .  A
C625        H632   1.085       .  S
C626        S628   1.803       .  S
S627        H630   1.406       .  S
S628        H629   1.407       .  S
C633        C634   1.403       .  A
C634        C635   1.398       .  A
C634        H643   1.084       .  S
C635        C636   1.414       .  A
C635        S639   1.804       .  S
C637        C638   1.400       .  A
C637        H644   1.083       .  S
C638        S640   1.804       .  S
S639        H642   1.407       .  S
S640        H641   1.407       .  S
C645        C650   1.416       .  A
C646        C647   1.397       .  A
C646        H655   1.083       .  S
C647        S651   1.801       .  S
C648        C649   1.403       .  A
C649        C650   1.401       .  A
C649        H656   1.083       .  S
C650        S652   1.804       .  S
S651        H654   1.405       .  S
S652        H653   1.407       .  S
C657        C658   1.405       .  A
C658        C659   1.400       .  A
C658        H667   1.083       .  S
C659        C660   1.415       .  A
C659        S663   1.804       .  S
C661        C662   1.399       .  A
C661        H668   1.084       .  S
C662        S664   1.805       .  S
S663        H666   1.407       .  S
S664        H665   1.407       .  S
C669        C674   1.413       .  A
C670        C671   1.398       .  A
C670        H679   1.084       .  S
C671        S675   1.804       .  S
C672        C673   1.403   1_545  A
C673        C674   1.399       .  A
C673        H680   1.084       .  S
C674        S676   1.803       .  S
S675        H678   1.406       .  S
S676        H677   1.407       .  S
C681        C682   1.404       .  A
C682        C683   1.400       .  A
C682        H691   1.083       .  S
C683        C684   1.411       .  A
C683        S687   1.804       .  S
C685        C686   1.398       .  A
C685        H692   1.084       .  S
C686        S688   1.796       .  S
S687        H690   1.407       .  S
S688        H689   1.407       .  S
C693        C698   1.414       .  A
C694        C695   1.398       .  A
C694        H703   1.084       .  S
C695        S699   1.803       .  S
C696        C697   1.404   1_545  A
C697        C698   1.400       .  A
C697        H704   1.084       .  S
C698        S700   1.804       .  S
S699        H702   1.407       .  S
S700        H701   1.406       .  S
C705        C710   1.414       .  A
C706        C707   1.399       .  A
C706        H715   1.084       .  S
C707        S711   1.802       .  S
C708        C709   1.404       .  A
C709        C710   1.399       .  A
C709        H716   1.084       .  S
C710        S712   1.804       .  S
S711        H714   1.407       .  S
S712        H713   1.406       .  S
C717        C722   1.415       .  A
C718        C719   1.399       .  A
C718        H727   1.084       .  S
C719        S723   1.804       .  S
C720        C721   1.403       .  A
C721        C722   1.399       .  A
C721        H728   1.084       .  S
C722        S724   1.804       .  S
S723        H726   1.406       .  S
S724        H725   1.406       .  S
