geometry optimzed in LAMMPS
_audit_creation_date              2020-11-30 
_audit_creation_method            'lammps2cif' 
_symmetry_space_group_name_H-M    'P1' 
_symmetry_Int_Tables_number       1 
_symmetry_cell_setting            triclinic 
loop_ 
_symmetry_equiv_pos_as_xyz 
  x,y,z 
_cell_length_a                    30.04407561116204 
_cell_length_b                    30.037037319365286 
_cell_length_c                    54.84525321233982 
_cell_angle_alpha                 89.99668622051121 
_cell_angle_beta                  90.00312781890453 
_cell_angle_gamma                 90.01377259072984 
loop_ 
_atom_site_label 
_atom_site_type_symbol 
_atom_site_fract_x 
_atom_site_fract_y 
_atom_site_fract_z 
_atom_site_charge 
C1          C  0.24992567  0.50038706  0.25077885    -0.02990
C2          C  0.47691353  0.25013407  0.00078047     0.00060
C3          C  0.02222572  0.25017823  0.00080975     0.00060
C4          C  0.24930782  0.50049680  0.75074280    -0.02990
C5          C  0.99929847  0.25055786  0.75078506    -0.02990
C6          C  0.25014004  0.47780086  0.00079107     0.00060
C7          C  0.24965689  0.02306361  0.00079261     0.00060
N8          N  0.22779604  0.34601527  0.87894177    -0.06620
N9          N  0.21248809  0.36786847  0.89806696    -0.58740
N10         N  0.27144787  0.34696741  0.82284642    -0.06300
N11         N  0.28680984  0.37502666  0.80632387    -0.60870
N12         N  0.22761113  0.34702861  0.82285960    -0.05900
N13         N  0.21226419  0.37511915  0.80635950    -0.58720
N14         N  0.27154494  0.34554282  0.87906430    -0.05580
N15         N  0.28695326  0.36681097  0.89836896    -0.61220
C16         C  0.24974951  0.38068753  0.91001369     0.95550
C17         C  0.24953579  0.39182680  0.79607840     0.95330
N18         N  0.34579068  0.22834525  0.82285165    -0.06810
N19         N  0.37384749  0.21295427  0.80634533    -0.59320
N20         N  0.34497417  0.27210737  0.87889542    -0.04930
N21         N  0.36692230  0.28748997  0.89797476    -0.60570
N22         N  0.34437498  0.22834852  0.87909718    -0.06840
N23         N  0.36560535  0.21300981  0.89843426    -0.59590
N24         N  0.34583807  0.27219018  0.82282568    -0.04570
N25         N  0.37392286  0.28751865  0.80632093    -0.60660
Mn26       Mn  0.30945628  0.31021425  0.85074983     1.18440
C27         C  0.39063318  0.25022347  0.79607386     0.97640
C28         C  0.37962942  0.25026916  0.90999309     0.98300
N29         N  0.15283953  0.27260420  0.82287504    -0.06860
N30         N  0.12474443  0.28801067  0.80638873    -0.63170
N31         N  0.15374328  0.22876305  0.87887664    -0.05660
N32         N  0.13183225  0.21331999  0.89794635    -0.63840
N33         N  0.15432816  0.27252015  0.87910449    -0.06360
N34         N  0.13311683  0.28780445  0.89845602    -0.63430
N35         N  0.15279770  0.22875660  0.82283568    -0.05260
N36         N  0.12467665  0.21344666  0.80634184    -0.64120
Mn37       Mn  0.18962555  0.31055746  0.85079884     1.10660
C38         C  0.10793830  0.25075276  0.79611492     0.98860
C39         C  0.11913020  0.25050261  0.90998690     0.98930
N40         N  0.27092739  0.15485483  0.87889345    -0.06370
N41         N  0.28631705  0.13296136  0.89798271    -0.61750
N42         N  0.22720445  0.15398372  0.82283580    -0.05690
N43         N  0.21183115  0.12591205  0.80632514    -0.58480
N44         N  0.27103974  0.15394099  0.82283449    -0.07000
N45         N  0.28637844  0.12584956  0.80633810    -0.61310
N46         N  0.22717906  0.15536528  0.87907528    -0.05990
N47         N  0.21185135  0.13411863  0.89841380    -0.58500
Mn48       Mn  0.30904477  0.19036709  0.85076930     1.20190
Mn49       Mn  0.18922538  0.19070235  0.85074770     1.10090
Cl50       Cl  0.24933422  0.25046289  0.85042409    -0.86470
C51         C  0.24911734  0.12018674  0.90998948     0.95860
C52         C  0.24910145  0.10912654  0.79607387     0.95660
N53         N  0.22792143  0.34687413  0.17871010    -0.06620
N54         N  0.21255313  0.37493619  0.19521979    -0.58740
N55         N  0.27175102  0.34587953  0.12264189    -0.06300
N56         N  0.28718800  0.36771716  0.10354020    -0.60870
N57         N  0.22800049  0.34563132  0.12252248    -0.05900
N58         N  0.21272442  0.36715485  0.10327266    -0.58720
N59         N  0.27175465  0.34688486  0.17872981    -0.05580
N60         N  0.28709931  0.37495224  0.19524489    -0.61220
C61         C  0.24981964  0.39168871  0.20549594     0.95550
C62         C  0.25001070  0.38086323  0.09162752     0.95330
N63         N  0.34554082  0.22853163  0.12275748    -0.06810
N64         N  0.36741326  0.21308187  0.10367860    -0.59320
N65         N  0.34635488  0.27241340  0.17875876    -0.04930
N66         N  0.37444771  0.28782447  0.19524322    -0.60570
N67         N  0.34636246  0.22857127  0.17880292    -0.06840
N68         N  0.37446312  0.21326139  0.19530449    -0.59590
N69         N  0.34503982  0.27229173  0.12254224    -0.04570
N70         N  0.36626376  0.28757086  0.10319314    -0.60660
Mn71       Mn  0.30974023  0.31037204  0.15081363     1.18440
C72         C  0.38017584  0.25026810  0.09164931     0.97640
C73         C  0.39121537  0.25057281  0.20552658     0.98300
N74         N  0.15438250  0.27216193  0.12262194    -0.06860
N75         N  0.13242864  0.28754702  0.10354658    -0.63170
N76         N  0.15343235  0.22840738  0.17867755    -0.05660
N77         N  0.12534966  0.21304419  0.19518130    -0.63840
N78         N  0.15343357  0.27224972  0.17868812    -0.06360
N79         N  0.12535621  0.28760795  0.19518435    -0.63430
N80         N  0.15488690  0.22839715  0.12244468    -0.05260
N81         N  0.13359019  0.21306137  0.10312849    -0.64120
Mn82       Mn  0.18992594  0.31024167  0.15078239     1.10660
C83         C  0.11962417  0.25032316  0.09155664     0.98860
C84         C  0.10859890  0.25032841  0.20543756     0.98930
N85         N  0.27187798  0.15395358  0.17877929    -0.06370
N86         N  0.28722463  0.12588009  0.19528813    -0.61750
N87         N  0.22821418  0.15478279  0.12269539    -0.05690
N88         N  0.21282525  0.13288069  0.10360691    -0.58480
N89         N  0.27196575  0.15512009  0.12258066    -0.07000
N90         N  0.28729155  0.13366150  0.10331878    -0.61310
N91         N  0.22804517  0.15392384  0.17876355    -0.05990
N92         N  0.21267734  0.12582005  0.19525361    -0.58500
Mn93       Mn  0.30994139  0.19053251  0.15088155     1.20190
Mn94       Mn  0.19012673  0.19037496  0.15079165     1.10090
Cl95       Cl  0.24993197  0.25038058  0.15102894    -0.86470
C96         C  0.24994579  0.10909612  0.20552638     0.95860
C97         C  0.25002793  0.11984485  0.09168881     0.95660
N98         N  0.09581264  0.02266776  0.67868107    -0.06620
N99         N  0.12389079  0.03804611  0.69518667    -0.58740
N100        N  0.09496313  0.47884446  0.62265183    -0.06300
N101        N  0.11687595  0.46342325  0.60357370    -0.60870
N102        N  0.09437807  0.02260959  0.62241647    -0.05900
N103        N  0.11551887  0.03791160  0.60303900    -0.58720
N104        N  0.09578998  0.47882398  0.67871865    -0.05580
N105        N  0.12384721  0.46348227  0.69523122    -0.61220
C106        C  0.14062356  0.00076909  0.70547028     0.95550
C107        C  0.12952795  0.00062758  0.59151070     0.95330
N108        N  0.47764695  0.40489232  0.62269445    -0.06810
N109        N  0.46226677  0.38298017  0.60360361    -0.59320
N110        N  0.02134318  0.40414589  0.67874929    -0.04930
N111        N  0.03669042  0.37608018  0.69526843    -0.60570
N112        N  0.47750896  0.40412916  0.67875889    -0.06840
N113        N  0.46214574  0.37605683  0.69526578    -0.59590
N114        N  0.02139669  0.40542789  0.62251731    -0.04570
N115        N  0.03673439  0.38418123  0.60319128    -0.60660
Mn116      Mn  0.05938033  0.44079745  0.65081084     1.18440
C117        C  0.49948439  0.37022165  0.59161080     0.97640
C118        C  0.49941025  0.35932244  0.70553272     0.98300
N119        N  0.02108493  0.09618898  0.62260468    -0.06860
N120        N  0.03651724  0.11809399  0.60352635    -0.63170
N121        N  0.47730038  0.09710792  0.67864187    -0.05660
N122        N  0.46193589  0.12519175  0.69514444    -0.63840
N123        N  0.02113586  0.09712220  0.67866444    -0.06360
N124        N  0.03648254  0.12521211  0.69516628    -0.63430
N125        N  0.47733561  0.09569938  0.62240921    -0.05260
N126        N  0.46205085  0.11699117  0.60307930    -0.64120
Mn127      Mn  0.05912176  0.06064982  0.65074310     1.10660
C128        C  0.49933954  0.13091303  0.59151639     0.98860
C129        C  0.49920808  0.14196207  0.70541251     0.98930
N130        N  0.40283208  0.47856696  0.67866759    -0.06370
N131        N  0.37472912  0.46320864  0.69516391    -0.61750
N132        N  0.40384942  0.02221744  0.62258711    -0.05690
N133        N  0.38212111  0.03755492  0.60342731    -0.58480
N134        N  0.40434732  0.47845578  0.62244140    -0.07000
N135        N  0.38327016  0.46306824  0.60306969    -0.61310
N136        N  0.40281431  0.02240998  0.67865812    -0.05990
N137        N  0.37469011  0.03776863  0.69513398    -0.58500
Mn138      Mn  0.43956376  0.44050794  0.65079467     1.20190
Mn139      Mn  0.43930806  0.06037727  0.65072401     1.10090
Cl140      Cl  0.49934994  0.00058593  0.65098767    -0.86470
C141        C  0.35794068  0.00048997  0.70539745     0.95860
C142        C  0.36945382  0.00029933  0.59142793     0.95660
N143        N  0.47799031  0.40411653  0.32276713    -0.06620
N144        N  0.46262494  0.37605307  0.30625227    -0.58740
N145        N  0.02179982  0.40499528  0.37882352    -0.06300
N146        N  0.03719677  0.38313645  0.39792836    -0.60870
N147        N  0.47804814  0.40540665  0.37898021    -0.05900
N148        N  0.46272824  0.38409304  0.39828991    -0.58720
N149        N  0.02182084  0.40413017  0.32274672    -0.05580
N150        N  0.03717020  0.37608212  0.30622982    -0.61220
C151        C  0.49989524  0.35933062  0.29597502     0.95550
C152        C  0.49998552  0.37025013  0.40989883     0.95330
N153        N  0.09543340  0.02237739  0.37885780    -0.06810
N154        N  0.11727317  0.03776472  0.39796883    -0.59320
N155        N  0.09636503  0.47864719  0.32276838    -0.04930
N156        N  0.12444244  0.46328460  0.30627184    -0.60570
N157        N  0.09639486  0.02249115  0.32277331    -0.06840
N158        N  0.12450288  0.03784914  0.30628348    -0.59590
N159        N  0.09522174  0.47861397  0.37892888    -0.04570
N160        N  0.11679052  0.46327918  0.39814702    -0.60660
Mn161      Mn  0.05980846  0.44059101  0.35066996     1.18440
C162        C  0.13047692  0.00054408  0.40983045     0.97640
C163        C  0.14123370  0.00056142  0.29602627     0.98300
N164        N  0.40443287  0.47869841  0.37886371    -0.06860
N165        N  0.38251570  0.46323470  0.39793070    -0.63170
N166        N  0.40346596  0.02252456  0.32279053    -0.05660
N167        N  0.37537199  0.03786624  0.30629006    -0.63840
N168        N  0.40348793  0.47868166  0.32277750    -0.06360
N169        N  0.37541671  0.46330274  0.30627739    -0.63430
N170        N  0.40463141  0.02246180  0.37897941    -0.05260
N171        N  0.38297383  0.03771461  0.39819152    -0.64120
Mn172      Mn  0.43999421  0.44071407  0.35070092     1.10660
C173        C  0.36925265  0.00040015  0.40982137     0.98860
C174        C  0.35864393  0.00057068  0.29602780     0.98930
N175        N  0.02188147  0.09708418  0.32282139    -0.06370
N176        N  0.03725557  0.12518200  0.30632701    -0.61750
N177        N  0.47808985  0.09613169  0.37886636    -0.05690
N178        N  0.46268977  0.11807393  0.39793752    -0.58480
N179        N  0.02184417  0.09572708  0.37902623    -0.07000
N180        N  0.03715876  0.11712694  0.39831178    -0.61310
N181        N  0.47804810  0.09708197  0.32280257    -0.05990
N182        N  0.46270922  0.12518132  0.30630515    -0.58500
Mn183      Mn  0.05989137  0.06043698  0.35072485     1.20190
Mn184      Mn  0.44004755  0.06055950  0.35071456     1.10090
Cl185      Cl  0.49993770  0.00057999  0.35049441    -0.86470
C186        C  0.49999208  0.14194570  0.29606355     0.95860
C187        C  0.49989272  0.13101552  0.40989710     0.95660
C188        C  0.99972460  0.27332665  0.50074952     0.00060
C189        C  0.99968117  0.22803377  0.50072131     0.00060
C190        C  0.27228383  0.49981513  0.50068881     0.00060
C191        C  0.22701723  0.50047891  0.50077671     0.00060
C192        C  0.99996933  0.25058155  0.25074120    -0.02990
C193        C  0.49998656  0.29051682  0.26607648    -0.13780
C194        C  0.49991616  0.32281608  0.27912949    -0.15340
C195        C  0.49999690  0.17846346  0.27921950    -0.13780
C196        C  0.49996306  0.21072910  0.26614076    -0.15340
C197        C  0.03825617  0.15759748  0.44765621    -0.13850
C198        C  0.49975426  0.15580356  0.43314119     0.08300
C199        C  0.46097433  0.17748943  0.44114827    -0.13850
C200        C  0.46086041  0.20096314  0.46316069    -0.13850
C201        C  0.99931208  0.20253011  0.47761528     0.08300
C202        C  0.03788560  0.18048235  0.46985014    -0.13850
H203        H  0.06850262  0.14097370  0.44196488     0.12280
H204        H  0.43088354  0.17664666  0.43028833     0.12280
H205        H  0.43085116  0.21788969  0.46896657     0.12280
H206        H  0.06783433  0.18155195  0.48083187     0.12280
C207        C  0.03886179  0.32404465  0.44130017    -0.13850
C208        C  0.50007557  0.34558541  0.43318190     0.08300
C209        C  0.46146924  0.34371944  0.44760857    -0.13850
C210        C  0.46171880  0.32085871  0.46980795    -0.13850
C211        C  0.00027875  0.29890815  0.47767072     0.08300
C212        C  0.03885721  0.30058919  0.46332178    -0.13850
H213        H  0.06903519  0.32495759  0.43051273     0.12280
H214        H  0.43121536  0.36023690  0.44183390     0.12280
H215        H  0.43167751  0.31970175  0.48070936     0.12280
H216        H  0.06885850  0.28373733  0.46920746     0.12280
C217        C  0.16178428  0.46077680  0.44604807    -0.13850
C218        C  0.15525146  0.00062160  0.43309508     0.08300
C219        C  0.17217271  0.04058947  0.44269723    -0.13850
C220        C  0.19542223  0.04063792  0.46478198    -0.13850
C221        C  0.20162585  0.50083250  0.47766329     0.08300
C222        C  0.18462487  0.46095760  0.46824834    -0.13850
H223        H  0.14902605  0.42953182  0.43910488     0.12280
H224        H  0.16764715  0.07175052  0.43308443     0.12280
H225        H  0.20862747  0.07161938  0.47183891     0.12280
H226        H  0.18946459  0.42996904  0.47799597     0.12280
C227        C  0.32724847  0.46016765  0.44252611    -0.13850
C228        C  0.34428416  0.00019241  0.43303802     0.08300
C229        C  0.33768607  0.03993559  0.44607035    -0.13850
C230        C  0.31468973  0.03960574  0.46822785    -0.13850
C231        C  0.29756100  0.49967478  0.47752485     0.08300
C232        C  0.30385266  0.45996945  0.46457012    -0.13850
H233        H  0.33183655  0.42906816  0.43286485     0.12280
H234        H  0.35054436  0.07121525  0.43922930     0.12280
H235        H  0.30986787  0.07051802  0.47804780     0.12280
H236        H  0.29064421  0.42893237  0.47155257     0.12520
C237        C  0.17920782  0.96300014  0.56133269    -0.13850
C238        C  0.15422989  0.00044800  0.56825374     0.08300
C239        C  0.15272556  0.03754634  0.55267650    -0.13850
C240        C  0.17570435  0.53711352  0.53050663    -0.13850
C241        C  0.20131120  0.50003154  0.52386343     0.08300
C242        C  0.20282710  0.96291799  0.53936931    -0.13850
H243        H  0.18089006  0.93400931  0.57303605     0.12280
H244        H  0.13334603  0.56664009  0.55750353     0.12280
H245        H  0.17417332  0.56600252  0.51872001     0.12280
H246        H  0.22226223  0.93393315  0.53441983     0.12280
C247        C  0.32212163  0.03866446  0.56039552    -0.13850
C248        C  0.34494085  0.00035118  0.56811375     0.08300
C249        C  0.34441655  0.46220661  0.55328718    -0.13850
C250        C  0.32152933  0.46242717  0.53109521    -0.13850
C251        C  0.29813675  0.50044358  0.52367061     0.08300
C252        C  0.29859990  0.03859109  0.53840614    -0.13850
H253        H  0.32200725  0.06847265  0.57150074     0.12280
H254        H  0.36198144  0.43235205  0.55875790     0.12280
H255        H  0.32137021  0.43271585  0.51990663     0.12280
H256        H  0.28068091  0.06819212  0.53285870     0.12280
C257        C  0.46135889  0.15663457  0.55347203    -0.13850
C258        C  0.49954822  0.15561776  0.56824904     0.08300
C259        C  0.03809660  0.17802429  0.56049257    -0.13850
C260        C  0.03824938  0.20152508  0.53848801    -0.13850
C261        C  0.00008908  0.20237493  0.52378132     0.08300
C262        C  0.46179448  0.17951362  0.53127504    -0.13850
H263        H  0.43131415  0.13942058  0.55896794     0.12280
H264        H  0.06794659  0.17777004  0.57155915     0.12280
H265        H  0.06805170  0.21906005  0.53289318     0.12280
H266        H  0.43207144  0.18000575  0.52009948     0.12280
C267        C  0.46110171  0.32263214  0.56066838    -0.13850
C268        C  0.49938247  0.34559217  0.56832657     0.08300
C269        C  0.03743544  0.34519611  0.55343899    -0.13850
C270        C  0.03713999  0.32235578  0.53123295    -0.13850
C271        C  0.99913712  0.29890876  0.52383797     0.08300
C272        C  0.46109642  0.29917630  0.53864982    -0.13850
H273        H  0.43136418  0.32241517  0.57182441     0.12280
H274        H  0.06726192  0.36286752  0.55885729     0.12280
H275        H  0.06675919  0.32235368  0.51997348     0.12280
H276        H  0.43149686  0.28123006  0.53312418     0.12280
C277        C  0.07209980  0.25036168  0.22228693    -0.13780
C278        C  0.03983886  0.25048921  0.23536234    -0.15340
C279        C  0.46007006  0.25057645  0.23538643    -0.13780
C280        C  0.42776626  0.25060755  0.22234227    -0.15340
C281        C  0.28856849  0.06867125  0.03226061    -0.13850
C282        C  0.24938032  0.04849940  0.02390777     0.08300
C283        C  0.21037069  0.05180087  0.03779997    -0.13850
C284        C  0.21053713  0.07515231  0.05985089    -0.13850
C285        C  0.24987668  0.09507120  0.06842971     0.08300
C286        C  0.28892719  0.09154567  0.05445879    -0.13850
H287        H  0.31894612  0.06621969  0.02170975     0.12280
H288        H  0.17989601  0.03629197  0.03153812     0.12280
H289        H  0.18000062  0.07734233  0.07026876     0.12280
H290        H  0.31963349  0.10675687  0.06058968     0.12280
C291        C  0.29010391  0.44666300  0.03696540    -0.13850
C292        C  0.25045430  0.45233714  0.02387971     0.08300
C293        C  0.21070985  0.43456364  0.03302488    -0.13850
C294        C  0.21047593  0.41162960  0.05519763    -0.13850
C295        C  0.25015572  0.40567709  0.06837120     0.08300
C296        C  0.29002282  0.42325604  0.05900652    -0.13850
H297        H  0.32099371  0.46039010  0.03009581     0.12280
H298        H  0.17984111  0.43892041  0.02310353     0.12280
H299        H  0.17932105  0.39832748  0.06194529     0.12280
H300        H  0.32106421  0.41916331  0.06878555     0.12280
C301        C  0.21179870  0.07196782  0.97038224    -0.13850
C302        C  0.24994976  0.04870856  0.97772269     0.08300
C303        C  0.28792083  0.04920557  0.96286344    -0.13850
C304        C  0.28771387  0.07268168  0.94085711    -0.13850
C305        C  0.24931326  0.09548233  0.93325489     0.08300
C306        C  0.21131459  0.09486910  0.94818551    -0.13850
H307        H  0.18222554  0.07178983  0.98167671     0.12280
H308        H  0.31763599  0.03141799  0.96834397     0.12280
H309        H  0.31741465  0.07262435  0.92967120     0.12280
H310        H  0.18139698  0.11241546  0.94280931     0.12280
C311        C  0.21097314  0.45022625  0.96348816    -0.13850
C312        C  0.24965333  0.45215733  0.97774412     0.08300
C313        C  0.28827276  0.43039615  0.96980806    -0.13850
C314        C  0.28846136  0.40748260  0.94762263    -0.13850
C315        C  0.24974514  0.40537710  0.93328916     0.08300
C316        C  0.21091469  0.42672684  0.94148639    -0.13850
H317        H  0.18092828  0.46693460  0.96942904     0.12280
H318        H  0.31840280  0.43175215  0.98062781     0.12280
H319        H  0.31875750  0.39112558  0.94178248     0.12280
H320        H  0.18065487  0.42563200  0.93077542     0.12280
C321        C  0.49923734  0.17845329  0.72228233    -0.13780
C322        C  0.49933115  0.21069807  0.73538121    -0.15340
C323        C  0.49936915  0.32279718  0.72238178    -0.13780
C324        C  0.49927734  0.29049799  0.73544195    -0.15340
C325        C  0.07142949  0.25075702  0.77925952    -0.13780
C326        C  0.03917467  0.25062591  0.76617159    -0.15340
C327        C  0.42713260  0.25023997  0.77922032    -0.13780
C328        C  0.45940113  0.25041258  0.76614774    -0.15340
C329        C  0.28919019  0.00054442  0.73534984    -0.13780
C330        C  0.32143640  0.00050313  0.72225592    -0.15340
C331        C  0.20941254  0.00054940  0.73538686    -0.13780
C332        C  0.17713258  0.00072482  0.72232048    -0.15340
C333        C  0.24927385  0.04036487  0.76613355    -0.13780
C334        C  0.24912873  0.07262481  0.77921721    -0.15340
C335        C  0.24951112  0.42831122  0.77919679    -0.13780
C336        C  0.24938210  0.46057084  0.76610372    -0.15340
C337        C  0.07167294  0.21285678  0.03114131    -0.13850
C338        C  0.04784270  0.25072849  0.02390681     0.08300
C339        C  0.04787060  0.28861059  0.03885056    -0.13850
C340        C  0.07148460  0.28858681  0.06082278    -0.13850
C341        C  0.09483111  0.25043346  0.06831635     0.08300
C342        C  0.09464558  0.21252413  0.05331075    -0.13850
H343        H  0.07187830  0.18336122  0.01977956     0.12280
H344        H  0.02964557  0.31811470  0.03345416     0.12280
H345        H  0.07108925  0.31820847  0.07207477     0.12280
H346        H  0.11260882  0.18279792  0.05860092     0.12280
C347        C  0.40478443  0.28791818  0.05331519    -0.13850
C348        C  0.40474327  0.25006529  0.06836089     0.08300
C349        C  0.42797885  0.21186087  0.06085513    -0.13850
C350        C  0.45138668  0.21174528  0.03882802    -0.13850
C351        C  0.45130884  0.24958800  0.02385648     0.08300
C352        C  0.42755817  0.28749655  0.03109501    -0.13850
H353        H  0.38688223  0.31767152  0.05861964     0.12280
H354        H  0.42846223  0.18228197  0.07214214     0.12280
H355        H  0.46957667  0.18222540  0.03342390     0.12280
H356        H  0.42730076  0.31696247  0.01970845     0.12280
C357        C  0.04776946  0.21189691  0.96274076    -0.13850
C358        C  0.04784304  0.24970269  0.97773667     0.08300
C359        C  0.07163116  0.28762557  0.97053402    -0.13850
C360        C  0.09445038  0.28809525  0.94832626    -0.13850
C361        C  0.09450184  0.25027563  0.93325869     0.08300
C362        C  0.07122094  0.21206014  0.94072816    -0.13850
H363        H  0.02955659  0.18236405  0.96811711     0.12280
H364        H  0.07188876  0.31706339  0.98194045     0.12280
H365        H  0.11238341  0.31785562  0.94304982     0.12280
H366        H  0.07074224  0.18250385  0.92942515     0.12280
C367        C  0.40446813  0.21250272  0.94827763    -0.13850
C368        C  0.40436437  0.25039025  0.93325323     0.08300
C369        C  0.42773976  0.28853669  0.94074601    -0.13850
C370        C  0.45132078  0.28856592  0.96272878    -0.13850
C371        C  0.45129019  0.25069591  0.97768460     0.08300
C372        C  0.42740960  0.21284080  0.97045739    -0.13850
H373        H  0.38647514  0.18278548  0.94299062     0.12280
H374        H  0.42819060  0.31814630  0.92948314     0.12280
H375        H  0.46957622  0.31806172  0.96812075     0.12280
H376        H  0.42715236  0.18335623  0.98182925     0.12280
C377        C  0.32211750  0.00052093  0.27919450    -0.13780
C378        C  0.28982881  0.00042785  0.26613790    -0.15340
C379        C  0.21005896  0.00045287  0.26615179    -0.13780
C380        C  0.17777116  0.00053143  0.27920514    -0.15340
C381        C  0.24994041  0.04025468  0.23539850    -0.13780
C382        C  0.24994316  0.07255137  0.22234658    -0.15340
C383        C  0.24987551  0.46046649  0.23542720    -0.13780
C384        C  0.24982273  0.42818807  0.22235592    -0.15340
C385        C  0.24993082  0.00038689  0.25077932    -0.02990
C386        C  0.47691342  0.75013223  0.00078038     0.00060
C387        C  0.02222560  0.75017812  0.00080975     0.00060
C388        C  0.24932223  0.00049672  0.75074297    -0.02990
C389        C  0.99929966  0.75055755  0.75078473    -0.02990
C390        C  0.25014187  0.97780094  0.00079097     0.00060
C391        C  0.24965588  0.52306355  0.00079264     0.00060
N392        N  0.22779816  0.84601555  0.87894169    -0.06620
N393        N  0.21249044  0.86786922  0.89806675    -0.58740
N394        N  0.27145047  0.84696671  0.82284670    -0.06300
N395        N  0.28681386  0.87502546  0.80632435    -0.60870
N396        N  0.22761373  0.84702906  0.82285949    -0.05900
N397        N  0.21226820  0.87512027  0.80635929    -0.58720
N398        N  0.27154704  0.84554186  0.87906448    -0.05580
N399        N  0.28695558  0.86680975  0.89836919    -0.61220
C400        C  0.24975195  0.88068735  0.91001368     0.95550
C401        C  0.24954077  0.89182681  0.79607857     0.95330
N402        N  0.34579096  0.72834420  0.82285078    -0.06810
N403        N  0.37384766  0.71295397  0.80634413    -0.59320
N404        N  0.34497527  0.77210497  0.87889512    -0.04930
N405        N  0.36692342  0.78748710  0.89797454    -0.60570
N406        N  0.34437606  0.72834611  0.87909652    -0.06840
N407        N  0.36560637  0.71300694  0.89843354    -0.59590
N408        N  0.34583877  0.77218915  0.82282546    -0.04570
N409        N  0.37392342  0.78751833  0.80632085    -0.60660
Mn410      Mn  0.30945782  0.81021283  0.85074994     1.18440
C411        C  0.39063347  0.75022370  0.79607315     0.97640
C412        C  0.37963050  0.75026605  0.90999261     0.98300
N413        N  0.15283999  0.77260509  0.82287514    -0.06860
N414        N  0.12474471  0.78801095  0.80638871    -0.63170
N415        N  0.15374431  0.72876481  0.87887710    -0.05660
N416        N  0.13183311  0.71332200  0.89794679    -0.63840
N417        N  0.15432918  0.77252190  0.87910472    -0.06360
N418        N  0.13311775  0.78780647  0.89845620    -0.63430
N419        N  0.15279779  0.72875750  0.82283633    -0.05260
N420        N  0.12467666  0.71344693  0.80634275    -0.64120
Mn421      Mn  0.18962701  0.81055845  0.85079876     1.10660
C422        C  0.10793835  0.75075254  0.79611542     0.98860
C423        C  0.11913102  0.75050473  0.90998718     0.98930
N424        N  0.27092735  0.65485383  0.87889302    -0.06370
N425        N  0.28631702  0.63295989  0.89798214    -0.61750
N426        N  0.22720232  0.65398434  0.82283604    -0.05690
N427        N  0.21182695  0.62591334  0.80632569    -0.58480
N428        N  0.27103761  0.65394035  0.82283391    -0.07000
N429        N  0.28637423  0.62584829  0.80633720    -0.61310
N430        N  0.22717903  0.65536570  0.87907539    -0.05990
N431        N  0.21185138  0.63411946  0.89841404    -0.58500
Mn432      Mn  0.30904471  0.69036564  0.85076852     1.20190
Mn433      Mn  0.18922529  0.69070346  0.85074820     1.10090
Cl434      Cl  0.24933495  0.75046271  0.85042403    -0.86470
C435        C  0.24911733  0.62018640  0.90998932     0.95860
C436        C  0.24909586  0.60912657  0.79607369     0.95660
N437        N  0.22792248  0.84687489  0.17871007    -0.06620
N438        N  0.21255472  0.87493706  0.19521988    -0.58740
N439        N  0.27175194  0.84587956  0.12264175    -0.06300
N440        N  0.28718909  0.86771696  0.10354003    -0.60870
N441        N  0.22800140  0.84563184  0.12252240    -0.05900
N442        N  0.21272550  0.86715545  0.10327257    -0.58720
N443        N  0.27175571  0.84688515  0.17872965    -0.05580
N444        N  0.28710090  0.87495219  0.19524474    -0.61220
C445        C  0.24982159  0.89168907  0.20549595     0.95550
C446        C  0.25001190  0.88086337  0.09162738     0.95330
N447        N  0.34554123  0.72853110  0.12275766    -0.06810
N448        N  0.36741349  0.71308101  0.10367880    -0.59320
N449        N  0.34635528  0.77241355  0.17875877    -0.04930
N450        N  0.37444803  0.78782498  0.19524317    -0.60570
N451        N  0.34636276  0.72857142  0.17880319    -0.06840
N452        N  0.37446343  0.71326191  0.19530490    -0.59590
N453        N  0.34504032  0.77229120  0.12254223    -0.04570
N454        N  0.36626420  0.78756999  0.10319304    -0.60660
Mn455      Mn  0.30974091  0.81037197  0.15081352     1.18440
C456        C  0.38017611  0.75026703  0.09164933     0.97640
C457        C  0.39121568  0.75057360  0.20552679     0.98300
N458        N  0.15438282  0.77216308  0.12262180    -0.06860
N459        N  0.13242889  0.78754820  0.10354646    -0.63170
N460        N  0.15343231  0.72840838  0.17867733    -0.05660
N461        N  0.12534958  0.71304504  0.19518101    -0.63840
N462        N  0.15343369  0.77225072  0.17868806    -0.06360
N463        N  0.12535629  0.78760880  0.19518432    -0.63430
N464        N  0.15488717  0.72839830  0.12244451    -0.05260
N465        N  0.13359034  0.71306254  0.10312838    -0.64120
Mn466      Mn  0.18992652  0.81024260  0.15078234     1.10660
C467        C  0.11962432  0.75032432  0.09155654     0.98860
C468        C  0.10859885  0.75032913  0.20543740     0.98930
N469        N  0.27187722  0.65395396  0.17877943    -0.06370
N470        N  0.28722314  0.62588009  0.19528829    -0.61750
N471        N  0.22821407  0.65478344  0.12269532    -0.05690
N472        N  0.21282508  0.63288146  0.10360681    -0.58480
N473        N  0.27196565  0.65512020  0.12258075    -0.07000
N474        N  0.28729139  0.63366139  0.10331892    -0.61310
N475        N  0.22804442  0.65392471  0.17876341    -0.05990
N476        N  0.21267585  0.62582104  0.19525329    -0.58500
Mn477      Mn  0.30994140  0.69053248  0.15088178     1.20190
Mn478      Mn  0.19012664  0.69037594  0.15079147     1.10090
Cl479      Cl  0.24993226  0.75038104  0.15102891    -0.86470
C480        C  0.24994381  0.60909656  0.20552625     0.95860
C481        C  0.25002772  0.61984514  0.09168883     0.95660
N482        N  0.09579911  0.52266625  0.67868036    -0.06620
N483        N  0.12387640  0.53804478  0.69518637    -0.58740
N484        N  0.09497773  0.97884759  0.62265220    -0.06300
N485        N  0.11689084  0.96342761  0.60357390    -0.60870
N486        N  0.09436264  0.52260642  0.62241508    -0.05900
N487        N  0.11550171  0.53790725  0.60303673    -0.58720
N488        N  0.09580426  0.97882542  0.67871884    -0.05580
N489        N  0.12386278  0.96348358  0.69523069    -0.61220
C490        C  0.14060798  0.50076790  0.70547074     0.95550
C491        C  0.12951125  0.50062248  0.59150932     0.95330
N492        N  0.47766259  0.90489332  0.62269408    -0.06810
N493        N  0.46228222  0.88298090  0.60360344    -0.59320
N494        N  0.02135816  0.90414546  0.67874896    -0.04930
N495        N  0.03670454  0.87607911  0.69526813    -0.60570
N496        N  0.47752396  0.90412923  0.67875831    -0.06840
N497        N  0.46215986  0.87605703  0.69526493    -0.59590
N498        N  0.02141233  0.90542912  0.62251674    -0.04570
N499        N  0.03674982  0.88418218  0.60319066    -0.60660
Mn500      Mn  0.05939535  0.94079870  0.65081072     1.18440
C501        C  0.49949954  0.87022232  0.59161044     0.97640
C502        C  0.49942363  0.85932183  0.70553207     0.98300
N503        N  0.02107181  0.59618743  0.62260415    -0.06860
N504        N  0.03650481  0.61809203  0.60352594    -0.63170
N505        N  0.47728861  0.59710841  0.67864160    -0.05660
N506        N  0.46192593  0.62519289  0.69514442    -0.63840
N507        N  0.02112412  0.59712120  0.67866364    -0.06360
N508        N  0.03647259  0.62521038  0.69516530    -0.63430
N509        N  0.47732250  0.59569940  0.62240881    -0.05260
N510        N  0.46203837  0.61699201  0.60307897    -0.64120
Mn511      Mn  0.05910829  0.56064787  0.65074216     1.10660
C512        C  0.49932764  0.63091258  0.59151609     0.98860
C513        C  0.49919935  0.64196178  0.70541203     0.98930
N514        N  0.40284669  0.97856570  0.67866772    -0.06370
N515        N  0.37474491  0.96320700  0.69516458    -0.61750
N516        N  0.40383574  0.52221828  0.62258698    -0.05690
N517        N  0.38210949  0.53755578  0.60342647    -0.58480
N518        N  0.40436141  0.97845501  0.62244137    -0.07000
N519        N  0.38328245  0.96306740  0.60307024    -0.61310
N520        N  0.40280020  0.52241128  0.67865792    -0.05990
N521        N  0.37467506  0.53777028  0.69513321    -0.58500
Mn522      Mn  0.43957883  0.94050778  0.65079441     1.20190
Mn523      Mn  0.43929469  0.56037806  0.65072384     1.10090
Cl524      Cl  0.49933558  0.50058539  0.65098753    -0.86470
C525        C  0.35792466  0.50049179  0.70539638     0.95860
C526        C  0.36944307  0.50030016  0.59142685     0.95660
N527        N  0.47799624  0.90411699  0.32276821    -0.06620
N528        N  0.46263057  0.87605381  0.30625332    -0.58740
N529        N  0.02180584  0.90499642  0.37882462    -0.06300
N530        N  0.03720278  0.88313717  0.39792931    -0.60870
N531        N  0.47805415  0.90540739  0.37898113    -0.05900
N532        N  0.46273422  0.88409302  0.39829055    -0.58720
N533        N  0.02182679  0.90413035  0.32274782    -0.05580
N534        N  0.03717584  0.87608219  0.30623083    -0.61220
C535        C  0.49990062  0.85933104  0.29597602     0.95550
C536        C  0.49999149  0.87025014  0.40989950     0.95330
N537        N  0.09542756  0.52237531  0.37885705    -0.06810
N538        N  0.11726716  0.53776185  0.39796830    -0.59320
N539        N  0.09637104  0.97864786  0.32276945    -0.04930
N540        N  0.12444861  0.96328502  0.30627306    -0.60570
N541        N  0.09638912  0.52249049  0.32277259    -0.06840
N542        N  0.12449715  0.53784872  0.30628282    -0.59590
N543        N  0.09522737  0.97861602  0.37893018    -0.04570
N544        N  0.11679600  0.96328207  0.39814863    -0.60660
Mn545      Mn  0.05981446  0.94059199  0.35067113     1.18440
C546        C  0.13047116  0.50054069  0.40982934     0.97640
C547        C  0.14122773  0.50056117  0.29602530     0.98300
N548        N  0.40443895  0.97869912  0.37886446    -0.06860
N549        N  0.38252287  0.96323582  0.39793192    -0.63170
N550        N  0.40346066  0.52252478  0.32278992    -0.05660
N551        N  0.37536670  0.53786669  0.30628952    -0.63840
N552        N  0.40349331  0.97868145  0.32277826    -0.06360
N553        N  0.37542209  0.96330231  0.30627817    -0.63430
N554        N  0.40462454  0.52246111  0.37897867    -0.05260
N555        N  0.38296474  0.53771344  0.39819020    -0.64120
Mn556      Mn  0.44000004  0.94071450  0.35070180     1.10660
C557        C  0.36924347  0.50039868  0.40981983     0.98860
C558        C  0.35863862  0.50057125  0.29602717     0.98930
N559        N  0.02187651  0.59708394  0.32282134    -0.06370
N560        N  0.03725128  0.62518183  0.30632721    -0.61750
N561        N  0.47808445  0.59613057  0.37886631    -0.05690
N562        N  0.46268468  0.61807287  0.39793755    -0.58480
N563        N  0.02183878  0.59572560  0.37902610    -0.07000
N564        N  0.03715366  0.61712530  0.39831162    -0.61310
N565        N  0.47804314  0.59708239  0.32280242    -0.05990
N566        N  0.46270495  0.62518242  0.30630513    -0.58500
Mn567      Mn  0.05988585  0.56043584  0.35072448     1.20190
Mn568      Mn  0.44004191  0.56055928  0.35071419     1.10090
Cl569      Cl  0.49993191  0.50057933  0.35049373    -0.86470
C570        C  0.49998827  0.64194643  0.29606376     0.95860
C571        C  0.49988785  0.63101413  0.40989706     0.95660
C572        C  0.99972968  0.77332563  0.50074955     0.00060
C573        C  0.99967982  0.72803282  0.50072115     0.00060
C574        C  0.27229359  0.99982110  0.50068994     0.00060
C575        C  0.22702727  0.00048578  0.50077681     0.00060
C576        C  0.99996979  0.75058266  0.25074152    -0.02990
C577        C  0.49998885  0.79051787  0.26607693    -0.13780
C578        C  0.49992061  0.82281684  0.27913020    -0.15340
C579        C  0.49999428  0.67846441  0.27921978    -0.13780
C580        C  0.49996222  0.71073010  0.26614105    -0.15340
C581        C  0.03825288  0.65759760  0.44765532    -0.13850
C582        C  0.49975000  0.65580236  0.43314112     0.08300
C583        C  0.46097002  0.67748727  0.44114894    -0.13850
C584        C  0.46085698  0.70096125  0.46316132    -0.13850
C585        C  0.99930964  0.70252942  0.47761507     0.08300
C586        C  0.03788326  0.68048280  0.46984914    -0.13850
H587        H  0.06849944  0.64097464  0.44196343     0.12280
H588        H  0.43087850  0.67664353  0.43028963     0.12280
H589        H  0.43084770  0.71788703  0.46896781     0.12280
H590        H  0.06783272  0.68155335  0.48083023     0.12280
C591        C  0.03886837  0.82404620  0.44130131    -0.13850
C592        C  0.50008140  0.84558473  0.43318230     0.08300
C593        C  0.46147403  0.84371597  0.44760801    -0.13850
C594        C  0.46172334  0.82085492  0.46980724    -0.13850
C595        C  0.00028419  0.79890705  0.47767087     0.08300
C596        C  0.03886361  0.80059047  0.46332284    -0.13850
H597        H  0.06904254  0.82496122  0.43051458     0.12280
H598        H  0.43121951  0.86023152  0.44183272     0.12280
H599        H  0.43168129  0.81969582  0.48070795     0.12280
H600        H  0.06886544  0.78374032  0.46920917     0.12280
C601        C  0.16178232  0.96078349  0.44605236    -0.13850
C602        C  0.15524493  0.50061713  0.43309410     0.08300
C603        C  0.17215656  0.54058616  0.44269979    -0.13850
C604        C  0.19540445  0.54063380  0.46478497    -0.13850
C605        C  0.20163542  0.00083875  0.47766351     0.08300
C606        C  0.18462404  0.96096529  0.46825231    -0.13850
H607        H  0.14901632  0.92953954  0.43911205     0.12280
H608        H  0.16762441  0.57174889  0.43308957     0.12280
H609        H  0.20860230  0.57161631  0.47184466     0.12280
H610        H  0.18945677  0.92997836  0.47800254     0.12280
C611        C  0.32723995  0.96017373  0.44252222    -0.13850
C612        C  0.34427300  0.50019019  0.43303604     0.08300
C613        C  0.33765387  0.53993651  0.44606233    -0.13850
C614        C  0.31465702  0.53960598  0.46821972    -0.13850
C615        C  0.29757247  0.99967882  0.47752668     0.08300
C616        C  0.30384393  0.95997660  0.46456611    -0.13850
H617        H  0.33181176  0.92907687  0.43285611     0.12280
H618        H  0.35049601  0.57121941  0.43921665     0.12280
H619        H  0.30981911  0.57052068  0.47803502     0.12280
H620        H  0.29061943  0.92894285  0.47154389     0.12520
C621        C  0.17922331  0.46300830  0.56134264    -0.13850
C622        C  0.15421340  0.50044137  0.56825258     0.08300
C623        C  0.15267799  0.53752339  0.55266477    -0.13850
C624        C  0.17574954  0.03713742  0.53051766    -0.13850
C625        C  0.20132222  0.00003894  0.52386323     0.08300
C626        C  0.20284479  0.46292579  0.53937993    -0.13850
H627        H  0.18092911  0.43403010  0.57305439     0.12280
H628        H  0.13341970  0.06667553  0.55752391     0.12280
H629        H  0.17424321  0.06603873  0.51873909     0.12280
H630        H  0.22230345  0.43395196  0.53443899     0.12280
C631        C  0.32211207  0.53866374  0.56039323    -0.13850
C632        C  0.34493274  0.50035161  0.56811188     0.08300
C633        C  0.34442157  0.96220614  0.55328908    -0.13850
C634        C  0.32153370  0.96242828  0.53109725    -0.13850
C635        C  0.29814418  0.00044655  0.52367262     0.08300
C636        C  0.29859039  0.53858856  0.53840382    -0.13850
H637        H  0.32199562  0.56847194  0.57149843     0.12280
H638        H  0.36198509  0.93235061  0.55875952     0.12280
H639        H  0.32137287  0.93271728  0.51990840     0.12280
H640        H  0.28066906  0.56818817  0.53285635     0.12280
C641        C  0.46134890  0.65663824  0.55347187    -0.13850
C642        C  0.49953806  0.65561758  0.56824891     0.08300
C643        C  0.03808886  0.67801994  0.56049245    -0.13850
C644        C  0.03824448  0.70152015  0.53848782    -0.13850
C645        C  0.00008447  0.70237383  0.52378104     0.08300
C646        C  0.46178719  0.67951694  0.53127476    -0.13850
H647        H  0.43130232  0.63942749  0.55896782     0.12280
H648        H  0.06793880  0.67776267  0.57155904     0.12280
H649        H  0.06804877  0.71905179  0.53289300     0.12280
H650        H  0.43206431  0.68001225  0.52009912     0.12280
C651        C  0.46111323  0.82263535  0.56066846    -0.13850
C652        C  0.49939629  0.84559173  0.56832652     0.08300
C653        C  0.03744925  0.84519141  0.55343895    -0.13850
C654        C  0.03715126  0.82235071  0.53123295    -0.13850
C655        C  0.99914574  0.79890774  0.52383805     0.08300
C656        C  0.46110528  0.79917941  0.53864999    -0.13850
H657        H  0.43137561  0.82242162  0.57182442     0.12280
H658        H  0.06727751  0.86285989  0.55885716     0.12280
H659        H  0.06677037  0.82234535  0.51997341     0.12280
H660        H  0.43150371  0.78123638  0.53312445     0.12280
C661        C  0.07209988  0.75036208  0.22228689    -0.13780
C662        C  0.03983913  0.75048936  0.23536247    -0.15340
C663        C  0.46007027  0.75057853  0.23538684    -0.13780
C664        C  0.42776649  0.75060900  0.22234262    -0.15340
C665        C  0.28856786  0.56867113  0.03226059    -0.13850
C666        C  0.24937956  0.54849947  0.02390779     0.08300
C667        C  0.21037000  0.55180117  0.03780005    -0.13850
C668        C  0.21053665  0.57515268  0.05985096    -0.13850
C669        C  0.24987633  0.59507139  0.06842974     0.08300
C670        C  0.28892677  0.59154559  0.05445878    -0.13850
H671        H  0.31894544  0.56621939  0.02170970     0.12280
H672        H  0.17989522  0.53629242  0.03153825     0.12280
H673        H  0.18000018  0.57734288  0.07026885     0.12280
H674        H  0.31963316  0.60675664  0.06058963     0.12280
C675        C  0.29010559  0.94666286  0.03696528    -0.13850
C676        C  0.25045604  0.95233715  0.02387957     0.08300
C677        C  0.21071148  0.93456384  0.03302470    -0.13850
C678        C  0.21047740  0.91162983  0.05519745    -0.13850
C679        C  0.25015712  0.90567717  0.06837106     0.08300
C680        C  0.29002434  0.92325592  0.05900640    -0.13850
H681        H  0.32099546  0.96038985  0.03009572     0.12280
H682        H  0.17984279  0.93892076  0.02310333     0.12280
H683        H  0.17932243  0.89832787  0.06194509     0.12280
H684        H  0.32106567  0.91916307  0.06878547     0.12280
C685        C  0.21179843  0.57196836  0.97038227    -0.13850
C686        C  0.24994907  0.54870836  0.97772265     0.08300
C687        C  0.28792002  0.54920458  0.96286328    -0.13850
C688        C  0.28771334  0.57268063  0.94085691    -0.13850
C689        C  0.24931312  0.59548205  0.93325478     0.08300
C690        C  0.21131458  0.59486961  0.94818552    -0.13850
H691        H  0.18222537  0.57179101  0.98167682     0.12280
H692        H  0.31763488  0.53141646  0.96834375     0.12280
H693        H  0.31741400  0.57262267  0.92967090     0.12280
H694        H  0.18139726  0.61241654  0.94280941     0.12280
C695        C  0.21097563  0.95022708  0.96348771    -0.13850
C696        C  0.24965546  0.95215751  0.97774398     0.08300
C697        C  0.28827474  0.93039565  0.96980824    -0.13850
C698        C  0.28846351  0.90748201  0.94762283    -0.13850
C699        C  0.24974762  0.90537715  0.93328907     0.08300
C700        C  0.21091736  0.92672765  0.94148597    -0.13850
H701        H  0.18093088  0.96693592  0.96942835     0.12280
H702        H  0.31840451  0.93175112  0.98062824     0.12280
H703        H  0.31875950  0.89112440  0.94178293     0.12280
H704        H  0.18065779  0.92563332  0.93077477     0.12280
C705        C  0.49923154  0.67845287  0.72228199    -0.13780
C706        C  0.49932939  0.71069759  0.73538095    -0.15340
C707        C  0.49938020  0.82279659  0.72238118    -0.13780
C708        C  0.49928313  0.79049755  0.73544147    -0.15340
C709        C  0.07142970  0.75075561  0.77925993    -0.13780
C710        C  0.03917522  0.75062338  0.76617175    -0.15340
C711        C  0.42713291  0.75024140  0.77921951    -0.13780
C712        C  0.45940162  0.75041485  0.76614700    -0.15340
C713        C  0.28917392  0.50054552  0.73534841    -0.13780
C714        C  0.32141979  0.50050509  0.72225432    -0.15340
C715        C  0.20939631  0.50054884  0.73538794    -0.13780
C716        C  0.17711618  0.50072379  0.72232160    -0.15340
C717        C  0.24926147  0.54036484  0.76613344    -0.13780
C718        C  0.24912001  0.57262480  0.77921708    -0.15340
C719        C  0.24951852  0.92831127  0.77919702    -0.13780
C720        C  0.24939317  0.96057089  0.76610396    -0.15340
C721        C  0.07167290  0.71285725  0.03114142    -0.13850
C722        C  0.04784245  0.75072876  0.02390683     0.08300
C723        C  0.04787019  0.78861100  0.03885047    -0.13850
C724        C  0.07148435  0.78858759  0.06082266    -0.13850
C725        C  0.09483113  0.75043444  0.06831628     0.08300
C726        C  0.09464568  0.71252495  0.05331079    -0.13850
H727        H  0.07187838  0.68336159  0.01977974     0.12280
H728        H  0.02964496  0.81811495  0.03345401     0.12280
H729        H  0.07108892  0.81820935  0.07207457     0.12280
H730        H  0.11260909  0.68279888  0.05860101     0.12280
C731        C  0.40478426  0.78791655  0.05331498    -0.13850
C732        C  0.40474329  0.75006386  0.06836083     0.08300
C733        C  0.42797889  0.71185938  0.06085516    -0.13850
C734        C  0.45138662  0.71174358  0.03882800    -0.13850
C735        C  0.45130862  0.74958614  0.02385634     0.08300
C736        C  0.42755788  0.78749471  0.03109477    -0.13850
H737        H  0.38688205  0.81766993  0.05861936     0.12280
H738        H  0.42846241  0.68228063  0.07214229     0.12280
H739        H  0.46957673  0.68222372  0.03342398     0.12280
H740        H  0.42730037  0.81696051  0.01970812     0.12280
C741        C  0.04777047  0.71189773  0.96274076    -0.13850
C742        C  0.04784309  0.74970343  0.97773671     0.08300
C743        C  0.07163033  0.78762694  0.97053412    -0.13850
C744        C  0.09444972  0.78809723  0.94832640    -0.13850
C745        C  0.09450218  0.75027762  0.93325882     0.08300
C746        C  0.07122204  0.71206161  0.94072822    -0.13850
H747        H  0.02955828  0.68236441  0.96811705     0.12280
H748        H  0.07188714  0.81706471  0.98194058     0.12280
H749        H  0.11238214  0.81785800  0.94305001     0.12280
H750        H  0.07074410  0.68250530  0.92942522     0.12280
C751        C  0.40446974  0.71249932  0.94827707    -0.13850
C752        C  0.40436533  0.75038702  0.93325279     0.08300
C753        C  0.42773967  0.78853394  0.94074582    -0.13850
C754        C  0.45132020  0.78856359  0.96272872    -0.13850
C755        C  0.45129027  0.75069348  0.97768444     0.08300
C756        C  0.42741080  0.71283779  0.97045699    -0.13850
H757        H  0.38647754  0.68278172  0.94298986     0.12280
H758        H  0.42818999  0.81814370  0.92948307     0.12280
H759        H  0.46957479  0.81805981  0.96812087     0.12280
H760        H  0.42715413  0.68335311  0.98182877     0.12280
C761        C  0.32211195  0.50052164  0.27919414    -0.13780
C762        C  0.28982315  0.50042833  0.26613770    -0.15340
C763        C  0.21005330  0.50045295  0.26615097    -0.13780
C764        C  0.17776528  0.50053139  0.27920419    -0.15340
C765        C  0.24993596  0.54025475  0.23539803    -0.13780
C766        C  0.24994006  0.57255158  0.22234625    -0.15340
C767        C  0.24987966  0.96046640  0.23542757    -0.13780
C768        C  0.24982558  0.92818818  0.22235612    -0.15340
C769        C  0.74992567  0.50038706  0.25077885    -0.02990
C770        C  0.97691353  0.25013407  0.00078047     0.00060
C771        C  0.52222571  0.25017823  0.00080975     0.00060
C772        C  0.74930782  0.50049680  0.75074280    -0.02990
C773        C  0.49929847  0.25055786  0.75078506    -0.02990
C774        C  0.75014004  0.47780086  0.00079107     0.00060
C775        C  0.74965688  0.02306361  0.00079261     0.00060
N776        N  0.72779604  0.34601527  0.87894178    -0.06620
N777        N  0.71248809  0.36786847  0.89806696    -0.58740
N778        N  0.77144787  0.34696741  0.82284642    -0.06300
N779        N  0.78680984  0.37502666  0.80632387    -0.60870
N780        N  0.72761113  0.34702861  0.82285960    -0.05900
N781        N  0.71226419  0.37511915  0.80635950    -0.58720
N782        N  0.77154494  0.34554282  0.87906430    -0.05580
N783        N  0.78695326  0.36681097  0.89836896    -0.61220
C784        C  0.74974951  0.38068753  0.91001369     0.95550
C785        C  0.74953579  0.39182680  0.79607840     0.95330
N786        N  0.84579068  0.22834525  0.82285165    -0.06810
N787        N  0.87384749  0.21295427  0.80634533    -0.59320
N788        N  0.84497417  0.27210737  0.87889542    -0.04930
N789        N  0.86692230  0.28748997  0.89797476    -0.60570
N790        N  0.84437498  0.22834852  0.87909718    -0.06840
N791        N  0.86560535  0.21300981  0.89843426    -0.59590
N792        N  0.84583807  0.27219018  0.82282568    -0.04570
N793        N  0.87392286  0.28751865  0.80632093    -0.60660
Mn794      Mn  0.80945628  0.31021425  0.85074983     1.18440
C795        C  0.89063318  0.25022347  0.79607386     0.97640
C796        C  0.87962942  0.25026916  0.90999309     0.98300
N797        N  0.65283953  0.27260420  0.82287504    -0.06860
N798        N  0.62474443  0.28801067  0.80638873    -0.63170
N799        N  0.65374328  0.22876305  0.87887664    -0.05660
N800        N  0.63183225  0.21331999  0.89794635    -0.63840
N801        N  0.65432816  0.27252015  0.87910449    -0.06360
N802        N  0.63311683  0.28780445  0.89845602    -0.63430
N803        N  0.65279770  0.22875660  0.82283568    -0.05260
N804        N  0.62467665  0.21344667  0.80634184    -0.64120
Mn805      Mn  0.68962556  0.31055746  0.85079884     1.10660
C806        C  0.60793830  0.25075276  0.79611492     0.98860
C807        C  0.61913020  0.25050261  0.90998690     0.98930
N808        N  0.77092739  0.15485483  0.87889345    -0.06370
N809        N  0.78631705  0.13296136  0.89798271    -0.61750
N810        N  0.72720445  0.15398372  0.82283580    -0.05690
N811        N  0.71183115  0.12591205  0.80632514    -0.58480
N812        N  0.77103974  0.15394099  0.82283449    -0.07000
N813        N  0.78637844  0.12584956  0.80633810    -0.61310
N814        N  0.72717906  0.15536528  0.87907528    -0.05990
N815        N  0.71185135  0.13411863  0.89841380    -0.58500
Mn816      Mn  0.80904477  0.19036709  0.85076930     1.20190
Mn817      Mn  0.68922538  0.19070235  0.85074770     1.10090
Cl818      Cl  0.74933422  0.25046289  0.85042409    -0.86470
C819        C  0.74911734  0.12018675  0.90998948     0.95860
C820        C  0.74910145  0.10912654  0.79607387     0.95660
N821        N  0.72792143  0.34687413  0.17871010    -0.06620
N822        N  0.71255313  0.37493619  0.19521979    -0.58740
N823        N  0.77175103  0.34587953  0.12264189    -0.06300
N824        N  0.78718801  0.36771716  0.10354020    -0.60870
N825        N  0.72800049  0.34563132  0.12252248    -0.05900
N826        N  0.71272442  0.36715485  0.10327266    -0.58720
N827        N  0.77175465  0.34688486  0.17872981    -0.05580
N828        N  0.78709931  0.37495224  0.19524489    -0.61220
C829        C  0.74981964  0.39168871  0.20549594     0.95550
C830        C  0.75001070  0.38086323  0.09162752     0.95330
N831        N  0.84554082  0.22853163  0.12275748    -0.06810
N832        N  0.86741326  0.21308187  0.10367860    -0.59320
N833        N  0.84635488  0.27241340  0.17875876    -0.04930
N834        N  0.87444772  0.28782447  0.19524322    -0.60570
N835        N  0.84636246  0.22857127  0.17880292    -0.06840
N836        N  0.87446311  0.21326139  0.19530449    -0.59590
N837        N  0.84503982  0.27229173  0.12254224    -0.04570
N838        N  0.86626376  0.28757086  0.10319314    -0.60660
Mn839      Mn  0.80974023  0.31037203  0.15081363     1.18440
C840        C  0.88017584  0.25026809  0.09164931     0.97640
C841        C  0.89121537  0.25057281  0.20552658     0.98300
N842        N  0.65438250  0.27216193  0.12262194    -0.06860
N843        N  0.63242864  0.28754702  0.10354658    -0.63170
N844        N  0.65343235  0.22840738  0.17867755    -0.05660
N845        N  0.62534966  0.21304419  0.19518130    -0.63840
N846        N  0.65343357  0.27224972  0.17868812    -0.06360
N847        N  0.62535621  0.28760795  0.19518435    -0.63430
N848        N  0.65488690  0.22839715  0.12244468    -0.05260
N849        N  0.63359019  0.21306137  0.10312849    -0.64120
Mn850      Mn  0.68992594  0.31024168  0.15078239     1.10660
C851        C  0.61962417  0.25032316  0.09155664     0.98860
C852        C  0.60859890  0.25032841  0.20543756     0.98930
N853        N  0.77187798  0.15395358  0.17877929    -0.06370
N854        N  0.78722463  0.12588009  0.19528813    -0.61750
N855        N  0.72821418  0.15478279  0.12269539    -0.05690
N856        N  0.71282524  0.13288069  0.10360691    -0.58480
N857        N  0.77196574  0.15512009  0.12258066    -0.07000
N858        N  0.78729155  0.13366150  0.10331878    -0.61310
N859        N  0.72804517  0.15392384  0.17876355    -0.05990
N860        N  0.71267734  0.12582005  0.19525361    -0.58500
Mn861      Mn  0.80994139  0.19053251  0.15088155     1.20190
Mn862      Mn  0.69012673  0.19037496  0.15079165     1.10090
Cl863      Cl  0.74993197  0.25038058  0.15102894    -0.86470
C864        C  0.74994579  0.10909612  0.20552637     0.95860
C865        C  0.75002793  0.11984485  0.09168881     0.95660
N866        N  0.59581264  0.02266777  0.67868107    -0.06620
N867        N  0.62389079  0.03804611  0.69518667    -0.58740
N868        N  0.59496313  0.47884446  0.62265183    -0.06300
N869        N  0.61687595  0.46342325  0.60357370    -0.60870
N870        N  0.59437807  0.02260960  0.62241647    -0.05900
N871        N  0.61551887  0.03791160  0.60303900    -0.58720
N872        N  0.59578998  0.47882398  0.67871865    -0.05580
N873        N  0.62384721  0.46348227  0.69523122    -0.61220
C874        C  0.64062356  0.00076909  0.70547028     0.95550
C875        C  0.62952795  0.00062758  0.59151070     0.95330
N876        N  0.97764695  0.40489232  0.62269445    -0.06810
N877        N  0.96226677  0.38298017  0.60360361    -0.59320
N878        N  0.52134318  0.40414589  0.67874929    -0.04930
N879        N  0.53669042  0.37608018  0.69526843    -0.60570
N880        N  0.97750896  0.40412916  0.67875889    -0.06840
N881        N  0.96214574  0.37605683  0.69526578    -0.59590
N882        N  0.52139669  0.40542789  0.62251731    -0.04570
N883        N  0.53673439  0.38418123  0.60319128    -0.60660
Mn884      Mn  0.55938033  0.44079744  0.65081084     1.18440
C885        C  0.99948439  0.37022165  0.59161080     0.97640
C886        C  0.99941025  0.35932244  0.70553272     0.98300
N887        N  0.52108494  0.09618898  0.62260468    -0.06860
N888        N  0.53651724  0.11809399  0.60352635    -0.63170
N889        N  0.97730037  0.09710792  0.67864187    -0.05660
N890        N  0.96193588  0.12519175  0.69514444    -0.63840
N891        N  0.52113586  0.09712220  0.67866444    -0.06360
N892        N  0.53648254  0.12521211  0.69516628    -0.63430
N893        N  0.97733560  0.09569938  0.62240921    -0.05260
N894        N  0.96205084  0.11699117  0.60307930    -0.64120
Mn895      Mn  0.55912177  0.06064982  0.65074310     1.10660
C896        C  0.99933954  0.13091303  0.59151639     0.98860
C897        C  0.99920808  0.14196207  0.70541251     0.98930
N898        N  0.90283208  0.47856696  0.67866759    -0.06370
N899        N  0.87472912  0.46320864  0.69516391    -0.61750
N900        N  0.90384942  0.02221744  0.62258711    -0.05690
N901        N  0.88212111  0.03755492  0.60342732    -0.58480
N902        N  0.90434732  0.47845578  0.62244140    -0.07000
N903        N  0.88327016  0.46306824  0.60306969    -0.61310
N904        N  0.90281431  0.02240998  0.67865812    -0.05990
N905        N  0.87469011  0.03776863  0.69513399    -0.58500
Mn906      Mn  0.93956376  0.44050794  0.65079467     1.20190
Mn907      Mn  0.93930805  0.06037726  0.65072401     1.10090
Cl908      Cl  0.99934994  0.00058593  0.65098767    -0.86470
C909        C  0.85794067  0.00048997  0.70539745     0.95860
C910        C  0.86945382  0.00029933  0.59142793     0.95660
N911        N  0.97799031  0.40411653  0.32276713    -0.06620
N912        N  0.96262494  0.37605307  0.30625227    -0.58740
N913        N  0.52179983  0.40499528  0.37882352    -0.06300
N914        N  0.53719678  0.38313645  0.39792836    -0.60870
N915        N  0.97804814  0.40540664  0.37898021    -0.05900
N916        N  0.96272824  0.38409304  0.39828991    -0.58720
N917        N  0.52182084  0.40413017  0.32274672    -0.05580
N918        N  0.53717020  0.37608212  0.30622982    -0.61220
C919        C  0.99989524  0.35933062  0.29597502     0.95550
C920        C  0.99998552  0.37025013  0.40989883     0.95330
N921        N  0.59543340  0.02237739  0.37885779    -0.06810
N922        N  0.61727317  0.03776472  0.39796883    -0.59320
N923        N  0.59636503  0.47864720  0.32276838    -0.04930
N924        N  0.62444245  0.46328460  0.30627184    -0.60570
N925        N  0.59639486  0.02249115  0.32277331    -0.06840
N926        N  0.62450288  0.03784914  0.30628348    -0.59590
N927        N  0.59522174  0.47861397  0.37892888    -0.04570
N928        N  0.61679052  0.46327918  0.39814702    -0.60660
Mn929      Mn  0.55980846  0.44059101  0.35066996     1.18440
C930        C  0.63047692  0.00054408  0.40983045     0.97640
C931        C  0.64123370  0.00056142  0.29602627     0.98300
N932        N  0.90443287  0.47869841  0.37886371    -0.06860
N933        N  0.88251570  0.46323470  0.39793070    -0.63170
N934        N  0.90346596  0.02252456  0.32279053    -0.05660
N935        N  0.87537199  0.03786624  0.30629006    -0.63840
N936        N  0.90348793  0.47868166  0.32277750    -0.06360
N937        N  0.87541671  0.46330274  0.30627739    -0.63430
N938        N  0.90463140  0.02246180  0.37897941    -0.05260
N939        N  0.88297383  0.03771461  0.39819152    -0.64120
Mn940      Mn  0.93999420  0.44071407  0.35070092     1.10660
C941        C  0.86925265  0.00040015  0.40982137     0.98860
C942        C  0.85864393  0.00057069  0.29602780     0.98930
N943        N  0.52188147  0.09708418  0.32282139    -0.06370
N944        N  0.53725557  0.12518200  0.30632701    -0.61750
N945        N  0.97808985  0.09613169  0.37886636    -0.05690
N946        N  0.96268977  0.11807393  0.39793752    -0.58480
N947        N  0.52184417  0.09572707  0.37902623    -0.07000
N948        N  0.53715876  0.11712694  0.39831178    -0.61310
N949        N  0.97804810  0.09708197  0.32280257    -0.05990
N950        N  0.96270922  0.12518132  0.30630515    -0.58500
Mn951      Mn  0.55989137  0.06043697  0.35072485     1.20190
Mn952      Mn  0.94004755  0.06055950  0.35071456     1.10090
Cl953      Cl  0.99993770  0.00057999  0.35049441    -0.86470
C954        C  0.99999209  0.14194570  0.29606355     0.95860
C955        C  0.99989272  0.13101552  0.40989710     0.95660
C956        C  0.49972460  0.27332665  0.50074952     0.00060
C957        C  0.49968118  0.22803377  0.50072131     0.00060
C958        C  0.77228383  0.49981513  0.50068881     0.00060
C959        C  0.72701723  0.50047891  0.50077671     0.00060
C960        C  0.49996933  0.25058155  0.25074120    -0.02990
C961        C  0.99998656  0.29051682  0.26607648    -0.13780
C962        C  0.99991616  0.32281608  0.27912949    -0.15340
C963        C  0.99999690  0.17846346  0.27921950    -0.13780
C964        C  0.99996306  0.21072910  0.26614076    -0.15340
C965        C  0.53825617  0.15759748  0.44765621    -0.13850
C966        C  0.99975425  0.15580356  0.43314119     0.08300
C967        C  0.96097433  0.17748942  0.44114827    -0.13850
C968        C  0.96086040  0.20096314  0.46316069    -0.13850
C969        C  0.49931208  0.20253011  0.47761528     0.08300
C970        C  0.53788561  0.18048235  0.46985014    -0.13850
H971        H  0.56850263  0.14097369  0.44196488     0.12280
H972        H  0.93088354  0.17664665  0.43028833     0.12280
H973        H  0.93085116  0.21788969  0.46896657     0.12280
H974        H  0.56783433  0.18155194  0.48083187     0.12280
C975        C  0.53886179  0.32404465  0.44130017    -0.13850
C976        C  0.00007557  0.34558541  0.43318190     0.08300
C977        C  0.96146923  0.34371944  0.44760857    -0.13850
C978        C  0.96171879  0.32085871  0.46980795    -0.13850
C979        C  0.50027876  0.29890815  0.47767072     0.08300
C980        C  0.53885722  0.30058919  0.46332178    -0.13850
H981        H  0.56903519  0.32495759  0.43051273     0.12280
H982        H  0.93121535  0.36023690  0.44183390     0.12280
H983        H  0.93167751  0.31970175  0.48070936     0.12280
H984        H  0.56885850  0.28373733  0.46920746     0.12280
C985        C  0.66178429  0.46077680  0.44604807    -0.13850
C986        C  0.65525146  0.00062160  0.43309508     0.08300
C987        C  0.67217271  0.04058947  0.44269723    -0.13850
C988        C  0.69542224  0.04063792  0.46478198    -0.13850
C989        C  0.70162585  0.50083250  0.47766329     0.08300
C990        C  0.68462487  0.46095760  0.46824834    -0.13850
H991        H  0.64902606  0.42953182  0.43910487     0.12280
H992        H  0.66764716  0.07175052  0.43308443     0.12280
H993        H  0.70862747  0.07161938  0.47183891     0.12280
H994        H  0.68946459  0.42996904  0.47799597     0.12280
C995        C  0.82724847  0.46016765  0.44252611    -0.13850
C996        C  0.84428416  0.00019241  0.43303802     0.08300
C997        C  0.83768607  0.03993559  0.44607035    -0.13850
C998        C  0.81468973  0.03960574  0.46822785    -0.13850
C999        C  0.79756100  0.49967478  0.47752485     0.08300
C1000       C  0.80385266  0.45996945  0.46457012    -0.13850
H1001       H  0.83183655  0.42906816  0.43286486     0.12280
H1002       H  0.85054436  0.07121525  0.43922930     0.12280
H1003       H  0.80986788  0.07051802  0.47804780     0.12280
H1004       H  0.79064421  0.42893237  0.47155257     0.12520
C1005       C  0.67920782  0.96300014  0.56133269    -0.13850
C1006       C  0.65422989  0.00044800  0.56825374     0.08300
C1007       C  0.65272557  0.03754634  0.55267650    -0.13850
C1008       C  0.67570436  0.53711352  0.53050663    -0.13850
C1009       C  0.70131120  0.50003154  0.52386343     0.08300
C1010       C  0.70282710  0.96291799  0.53936931    -0.13850
H1011       H  0.68089006  0.93400931  0.57303605     0.12280
H1012       H  0.63334603  0.56664009  0.55750354     0.12280
H1013       H  0.67417332  0.56600253  0.51872001     0.12280
H1014       H  0.72226223  0.93393315  0.53441983     0.12280
C1015       C  0.82212163  0.03866446  0.56039552    -0.13850
C1016       C  0.84494085  0.00035118  0.56811375     0.08300
C1017       C  0.84441655  0.46220661  0.55328718    -0.13850
C1018       C  0.82152933  0.46242717  0.53109521    -0.13850
C1019       C  0.79813675  0.50044358  0.52367061     0.08300
C1020       C  0.79859990  0.03859109  0.53840614    -0.13850
H1021       H  0.82200725  0.06847265  0.57150074     0.12280
H1022       H  0.86198144  0.43235205  0.55875790     0.12280
H1023       H  0.82137021  0.43271585  0.51990663     0.12280
H1024       H  0.78068091  0.06819212  0.53285870     0.12280
C1025       C  0.96135889  0.15663457  0.55347203    -0.13850
C1026       C  0.99954822  0.15561776  0.56824904     0.08300
C1027       C  0.53809660  0.17802430  0.56049257    -0.13850
C1028       C  0.53824939  0.20152509  0.53848801    -0.13850
C1029       C  0.50008908  0.20237493  0.52378132     0.08300
C1030       C  0.96179447  0.17951362  0.53127504    -0.13850
H1031       H  0.93131414  0.13942058  0.55896794     0.12280
H1032       H  0.56794659  0.17777004  0.57155915     0.12280
H1033       H  0.56805170  0.21906005  0.53289318     0.12280
H1034       H  0.93207144  0.18000576  0.52009948     0.12280
C1035       C  0.96110170  0.32263214  0.56066838    -0.13850
C1036       C  0.99938247  0.34559217  0.56832657     0.08300
C1037       C  0.53743545  0.34519611  0.55343899    -0.13850
C1038       C  0.53713999  0.32235578  0.53123295    -0.13850
C1039       C  0.49913713  0.29890876  0.52383797     0.08300
C1040       C  0.96109641  0.29917630  0.53864982    -0.13850
H1041       H  0.93136418  0.32241517  0.57182441     0.12280
H1042       H  0.56726192  0.36286752  0.55885729     0.12280
H1043       H  0.56675920  0.32235368  0.51997348     0.12280
H1044       H  0.93149685  0.28123006  0.53312419     0.12280
C1045       C  0.57209980  0.25036168  0.22228693    -0.13780
C1046       C  0.53983886  0.25048921  0.23536234    -0.15340
C1047       C  0.96007006  0.25057645  0.23538642    -0.13780
C1048       C  0.92776626  0.25060755  0.22234227    -0.15340
C1049       C  0.78856848  0.06867125  0.03226061    -0.13850
C1050       C  0.74938032  0.04849940  0.02390777     0.08300
C1051       C  0.71037069  0.05180086  0.03779998    -0.13850
C1052       C  0.71053713  0.07515231  0.05985090    -0.13850
C1053       C  0.74987667  0.09507120  0.06842971     0.08300
C1054       C  0.78892719  0.09154567  0.05445879    -0.13850
H1055       H  0.81894612  0.06621970  0.02170975     0.12280
H1056       H  0.67989601  0.03629197  0.03153812     0.12280
H1057       H  0.68000062  0.07734232  0.07026876     0.12280
H1058       H  0.81963348  0.10675688  0.06058968     0.12280
C1059       C  0.79010391  0.44666299  0.03696540    -0.13850
C1060       C  0.75045430  0.45233714  0.02387971     0.08300
C1061       C  0.71070985  0.43456364  0.03302488    -0.13850
C1062       C  0.71047594  0.41162960  0.05519763    -0.13850
C1063       C  0.75015572  0.40567709  0.06837121     0.08300
C1064       C  0.79002283  0.42325604  0.05900652    -0.13850
H1065       H  0.82099372  0.46039009  0.03009580     0.12280
H1066       H  0.67984111  0.43892042  0.02310353     0.12280
H1067       H  0.67932105  0.39832749  0.06194530     0.12280
H1068       H  0.82106421  0.41916330  0.06878554     0.12280
C1069       C  0.71179870  0.07196781  0.97038224    -0.13850
C1070       C  0.74994975  0.04870856  0.97772269     0.08300
C1071       C  0.78792083  0.04920557  0.96286344    -0.13850
C1072       C  0.78771387  0.07268168  0.94085711    -0.13850
C1073       C  0.74931326  0.09548233  0.93325489     0.08300
C1074       C  0.71131458  0.09486910  0.94818550    -0.13850
H1075       H  0.68222554  0.07178983  0.98167671     0.12280
H1076       H  0.81763599  0.03141799  0.96834397     0.12280
H1077       H  0.81741465  0.07262435  0.92967120     0.12280
H1078       H  0.68139698  0.11241546  0.94280931     0.12280
C1079       C  0.71097314  0.45022625  0.96348816    -0.13850
C1080       C  0.74965333  0.45215734  0.97774412     0.08300
C1081       C  0.78827276  0.43039615  0.96980806    -0.13850
C1082       C  0.78846136  0.40748260  0.94762263    -0.13850
C1083       C  0.74974515  0.40537710  0.93328916     0.08300
C1084       C  0.71091469  0.42672684  0.94148640    -0.13850
H1085       H  0.68092828  0.46693459  0.96942904     0.12280
H1086       H  0.81840281  0.43175215  0.98062781     0.12280
H1087       H  0.81875751  0.39112558  0.94178248     0.12280
H1088       H  0.68065488  0.42563200  0.93077542     0.12280
C1089       C  0.99923734  0.17845329  0.72228233    -0.13780
C1090       C  0.99933115  0.21069807  0.73538121    -0.15340
C1091       C  0.99936915  0.32279718  0.72238178    -0.13780
C1092       C  0.99927734  0.29049799  0.73544195    -0.15340
C1093       C  0.57142949  0.25075702  0.77925952    -0.13780
C1094       C  0.53917467  0.25062591  0.76617159    -0.15340
C1095       C  0.92713260  0.25023997  0.77922032    -0.13780
C1096       C  0.95940113  0.25041258  0.76614774    -0.15340
C1097       C  0.78919019  0.00054442  0.73534984    -0.13780
C1098       C  0.82143640  0.00050313  0.72225592    -0.15340
C1099       C  0.70941254  0.00054940  0.73538686    -0.13780
C1100       C  0.67713258  0.00072482  0.72232048    -0.15340
C1101       C  0.74927385  0.04036487  0.76613355    -0.13780
C1102       C  0.74912873  0.07262481  0.77921721    -0.15340
C1103       C  0.74951112  0.42831122  0.77919679    -0.13780
C1104       C  0.74938210  0.46057084  0.76610373    -0.15340
C1105       C  0.57167294  0.21285679  0.03114131    -0.13850
C1106       C  0.54784270  0.25072849  0.02390681     0.08300
C1107       C  0.54787060  0.28861059  0.03885056    -0.13850
C1108       C  0.57148460  0.28858681  0.06082278    -0.13850
C1109       C  0.59483111  0.25043346  0.06831635     0.08300
C1110       C  0.59464558  0.21252413  0.05331075    -0.13850
H1111       H  0.57187829  0.18336122  0.01977956     0.12280
H1112       H  0.52964557  0.31811470  0.03345416     0.12280
H1113       H  0.57108925  0.31820848  0.07207477     0.12280
H1114       H  0.61260881  0.18279792  0.05860092     0.12280
C1115       C  0.90478443  0.28791818  0.05331519    -0.13850
C1116       C  0.90474327  0.25006529  0.06836089     0.08300
C1117       C  0.92797885  0.21186087  0.06085513    -0.13850
C1118       C  0.95138668  0.21174528  0.03882802    -0.13850
C1119       C  0.95130884  0.24958800  0.02385648     0.08300
C1120       C  0.92755817  0.28749655  0.03109501    -0.13850
H1121       H  0.88688224  0.31767152  0.05861964     0.12280
H1122       H  0.92846223  0.18228197  0.07214214     0.12280
H1123       H  0.96957667  0.18222540  0.03342390     0.12280
H1124       H  0.92730076  0.31696247  0.01970845     0.12280
C1125       C  0.54776946  0.21189691  0.96274076    -0.13850
C1126       C  0.54784304  0.24970269  0.97773667     0.08300
C1127       C  0.57163116  0.28762557  0.97053402    -0.13850
C1128       C  0.59445038  0.28809525  0.94832626    -0.13850
C1129       C  0.59450184  0.25027563  0.93325869     0.08300
C1130       C  0.57122094  0.21206014  0.94072816    -0.13850
H1131       H  0.52955659  0.18236405  0.96811711     0.12280
H1132       H  0.57188875  0.31706339  0.98194045     0.12280
H1133       H  0.61238341  0.31785562  0.94304982     0.12280
H1134       H  0.57074224  0.18250385  0.92942515     0.12280
C1135       C  0.90446813  0.21250272  0.94827763    -0.13850
C1136       C  0.90436437  0.25039025  0.93325323     0.08300
C1137       C  0.92773976  0.28853669  0.94074601    -0.13850
C1138       C  0.95132078  0.28856592  0.96272878    -0.13850
C1139       C  0.95129019  0.25069590  0.97768460     0.08300
C1140       C  0.92740960  0.21284080  0.97045739    -0.13850
H1141       H  0.88647514  0.18278548  0.94299062     0.12280
H1142       H  0.92819060  0.31814630  0.92948314     0.12280
H1143       H  0.96957622  0.31806172  0.96812075     0.12280
H1144       H  0.92715236  0.18335623  0.98182925     0.12280
C1145       C  0.82211750  0.00052093  0.27919450    -0.13780
C1146       C  0.78982881  0.00042785  0.26613790    -0.15340
C1147       C  0.71005896  0.00045287  0.26615179    -0.13780
C1148       C  0.67777116  0.00053143  0.27920514    -0.15340
C1149       C  0.74994041  0.04025468  0.23539850    -0.13780
C1150       C  0.74994316  0.07255137  0.22234658    -0.15340
C1151       C  0.74987551  0.46046649  0.23542720    -0.13780
C1152       C  0.74982273  0.42818807  0.22235592    -0.15340
C1153       C  0.74993082  0.00038689  0.25077932    -0.02990
C1154       C  0.97691342  0.75013223  0.00078038     0.00060
C1155       C  0.52222560  0.75017811  0.00080975     0.00060
C1156       C  0.74932223  0.00049672  0.75074297    -0.02990
C1157       C  0.49929966  0.75055755  0.75078473    -0.02990
C1158       C  0.75014186  0.97780094  0.00079097     0.00060
C1159       C  0.74965588  0.52306355  0.00079264     0.00060
N1160       N  0.72779816  0.84601555  0.87894169    -0.06620
N1161       N  0.71249044  0.86786922  0.89806675    -0.58740
N1162       N  0.77145047  0.84696671  0.82284670    -0.06300
N1163       N  0.78681385  0.87502546  0.80632435    -0.60870
N1164       N  0.72761373  0.84702906  0.82285949    -0.05900
N1165       N  0.71226820  0.87512027  0.80635929    -0.58720
N1166       N  0.77154704  0.84554186  0.87906449    -0.05580
N1167       N  0.78695557  0.86680975  0.89836919    -0.61220
C1168       C  0.74975195  0.88068735  0.91001368     0.95550
C1169       C  0.74954077  0.89182681  0.79607858     0.95330
N1170       N  0.84579096  0.72834421  0.82285078    -0.06810
N1171       N  0.87384765  0.71295397  0.80634413    -0.59320
N1172       N  0.84497527  0.77210497  0.87889512    -0.04930
N1173       N  0.86692342  0.78748710  0.89797454    -0.60570
N1174       N  0.84437605  0.72834611  0.87909653    -0.06840
N1175       N  0.86560637  0.71300694  0.89843354    -0.59590
N1176       N  0.84583877  0.77218915  0.82282546    -0.04570
N1177       N  0.87392342  0.78751833  0.80632085    -0.60660
Mn1178     Mn  0.80945782  0.81021283  0.85074994     1.18440
C1179       C  0.89063347  0.75022370  0.79607315     0.97640
C1180       C  0.87963050  0.75026605  0.90999261     0.98300
N1181       N  0.65283999  0.77260509  0.82287514    -0.06860
N1182       N  0.62474471  0.78801095  0.80638871    -0.63170
N1183       N  0.65374430  0.72876481  0.87887710    -0.05660
N1184       N  0.63183311  0.71332200  0.89794679    -0.63840
N1185       N  0.65432918  0.77252190  0.87910472    -0.06360
N1186       N  0.63311775  0.78780647  0.89845620    -0.63430
N1187       N  0.65279779  0.72875750  0.82283633    -0.05260
N1188       N  0.62467666  0.71344693  0.80634275    -0.64120
Mn1189     Mn  0.68962701  0.81055845  0.85079876     1.10660
C1190       C  0.60793835  0.75075254  0.79611542     0.98860
C1191       C  0.61913101  0.75050473  0.90998718     0.98930
N1192       N  0.77092735  0.65485383  0.87889302    -0.06370
N1193       N  0.78631702  0.63295989  0.89798214    -0.61750
N1194       N  0.72720232  0.65398434  0.82283604    -0.05690
N1195       N  0.71182695  0.62591334  0.80632569    -0.58480
N1196       N  0.77103761  0.65394035  0.82283391    -0.07000
N1197       N  0.78637423  0.62584829  0.80633720    -0.61310
N1198       N  0.72717903  0.65536570  0.87907539    -0.05990
N1199       N  0.71185138  0.63411946  0.89841404    -0.58500
Mn1200     Mn  0.80904471  0.69036565  0.85076852     1.20190
Mn1201     Mn  0.68922528  0.69070346  0.85074820     1.10090
Cl1202     Cl  0.74933495  0.75046271  0.85042403    -0.86470
C1203       C  0.74911733  0.62018640  0.90998932     0.95860
C1204       C  0.74909586  0.60912657  0.79607369     0.95660
N1205       N  0.72792248  0.84687489  0.17871007    -0.06620
N1206       N  0.71255472  0.87493706  0.19521988    -0.58740
N1207       N  0.77175194  0.84587956  0.12264175    -0.06300
N1208       N  0.78718909  0.86771696  0.10354003    -0.60870
N1209       N  0.72800140  0.84563184  0.12252240    -0.05900
N1210       N  0.71272550  0.86715545  0.10327257    -0.58720
N1211       N  0.77175571  0.84688515  0.17872965    -0.05580
N1212       N  0.78710090  0.87495219  0.19524474    -0.61220
C1213       C  0.74982159  0.89168907  0.20549595     0.95550
C1214       C  0.75001190  0.88086337  0.09162738     0.95330
N1215       N  0.84554123  0.72853110  0.12275766    -0.06810
N1216       N  0.86741349  0.71308101  0.10367880    -0.59320
N1217       N  0.84635528  0.77241355  0.17875877    -0.04930
N1218       N  0.87444803  0.78782498  0.19524317    -0.60570
N1219       N  0.84636277  0.72857142  0.17880319    -0.06840
N1220       N  0.87446343  0.71326191  0.19530490    -0.59590
N1221       N  0.84504032  0.77229120  0.12254223    -0.04570
N1222       N  0.86626420  0.78756999  0.10319304    -0.60660
Mn1223     Mn  0.80974091  0.81037197  0.15081352     1.18440
C1224       C  0.88017611  0.75026703  0.09164933     0.97640
C1225       C  0.89121568  0.75057360  0.20552679     0.98300
N1226       N  0.65438282  0.77216308  0.12262180    -0.06860
N1227       N  0.63242889  0.78754820  0.10354646    -0.63170
N1228       N  0.65343232  0.72840838  0.17867733    -0.05660
N1229       N  0.62534958  0.71304504  0.19518101    -0.63840
N1230       N  0.65343369  0.77225072  0.17868806    -0.06360
N1231       N  0.62535629  0.78760880  0.19518432    -0.63430
N1232       N  0.65488717  0.72839830  0.12244451    -0.05260
N1233       N  0.63359034  0.71306254  0.10312838    -0.64120
Mn1234     Mn  0.68992652  0.81024260  0.15078234     1.10660
C1235       C  0.61962432  0.75032432  0.09155654     0.98860
C1236       C  0.60859885  0.75032913  0.20543740     0.98930
N1237       N  0.77187723  0.65395396  0.17877943    -0.06370
N1238       N  0.78722314  0.62588009  0.19528829    -0.61750
N1239       N  0.72821407  0.65478344  0.12269532    -0.05690
N1240       N  0.71282508  0.63288146  0.10360681    -0.58480
N1241       N  0.77196565  0.65512020  0.12258075    -0.07000
N1242       N  0.78729139  0.63366139  0.10331892    -0.61310
N1243       N  0.72804442  0.65392471  0.17876342    -0.05990
N1244       N  0.71267585  0.62582104  0.19525329    -0.58500
Mn1245     Mn  0.80994140  0.69053248  0.15088178     1.20190
Mn1246     Mn  0.69012664  0.69037594  0.15079147     1.10090
Cl1247     Cl  0.74993226  0.75038104  0.15102891    -0.86470
C1248       C  0.74994381  0.60909656  0.20552625     0.95860
C1249       C  0.75002772  0.61984514  0.09168883     0.95660
N1250       N  0.59579911  0.52266625  0.67868036    -0.06620
N1251       N  0.62387640  0.53804478  0.69518637    -0.58740
N1252       N  0.59497774  0.97884759  0.62265220    -0.06300
N1253       N  0.61689085  0.96342762  0.60357390    -0.60870
N1254       N  0.59436264  0.52260642  0.62241508    -0.05900
N1255       N  0.61550172  0.53790725  0.60303673    -0.58720
N1256       N  0.59580426  0.97882542  0.67871884    -0.05580
N1257       N  0.62386278  0.96348359  0.69523069    -0.61220
C1258       C  0.64060798  0.50076790  0.70547074     0.95550
C1259       C  0.62951125  0.50062248  0.59150932     0.95330
N1260       N  0.97766259  0.90489331  0.62269408    -0.06810
N1261       N  0.96228222  0.88298090  0.60360344    -0.59320
N1262       N  0.52135817  0.90414546  0.67874896    -0.04930
N1263       N  0.53670454  0.87607911  0.69526813    -0.60570
N1264       N  0.97752396  0.90412923  0.67875831    -0.06840
N1265       N  0.96215986  0.87605703  0.69526493    -0.59590
N1266       N  0.52141234  0.90542912  0.62251674    -0.04570
N1267       N  0.53674982  0.88418218  0.60319066    -0.60660
Mn1268     Mn  0.55939535  0.94079870  0.65081072     1.18440
C1269       C  0.99949954  0.87022232  0.59161044     0.97640
C1270       C  0.99942363  0.85932182  0.70553207     0.98300
N1271       N  0.52107181  0.59618743  0.62260415    -0.06860
N1272       N  0.53650482  0.61809203  0.60352594    -0.63170
N1273       N  0.97728861  0.59710841  0.67864160    -0.05660
N1274       N  0.96192592  0.62519289  0.69514442    -0.63840
N1275       N  0.52112412  0.59712120  0.67866364    -0.06360
N1276       N  0.53647259  0.62521038  0.69516530    -0.63430
N1277       N  0.97732250  0.59569940  0.62240881    -0.05260
N1278       N  0.96203837  0.61699201  0.60307897    -0.64120
Mn1279     Mn  0.55910829  0.56064787  0.65074216     1.10660
C1280       C  0.99932764  0.63091258  0.59151609     0.98860
C1281       C  0.99919935  0.64196178  0.70541203     0.98930
N1282       N  0.90284669  0.97856570  0.67866772    -0.06370
N1283       N  0.87474490  0.96320700  0.69516458    -0.61750
N1284       N  0.90383574  0.52221828  0.62258698    -0.05690
N1285       N  0.88210949  0.53755578  0.60342647    -0.58480
N1286       N  0.90436141  0.97845501  0.62244137    -0.07000
N1287       N  0.88328244  0.96306740  0.60307024    -0.61310
N1288       N  0.90280020  0.52241128  0.67865792    -0.05990
N1289       N  0.87467506  0.53777028  0.69513321    -0.58500
Mn1290     Mn  0.93957883  0.94050778  0.65079441     1.20190
Mn1291     Mn  0.93929469  0.56037806  0.65072384     1.10090
Cl1292     Cl  0.99933558  0.50058539  0.65098753    -0.86470
C1293       C  0.85792466  0.50049179  0.70539638     0.95860
C1294       C  0.86944306  0.50030016  0.59142685     0.95660
N1295       N  0.97799624  0.90411699  0.32276821    -0.06620
N1296       N  0.96263057  0.87605381  0.30625332    -0.58740
N1297       N  0.52180584  0.90499642  0.37882462    -0.06300
N1298       N  0.53720278  0.88313717  0.39792931    -0.60870
N1299       N  0.97805415  0.90540739  0.37898113    -0.05900
N1300       N  0.96273422  0.88409302  0.39829055    -0.58720
N1301       N  0.52182679  0.90413035  0.32274782    -0.05580
N1302       N  0.53717583  0.87608219  0.30623083    -0.61220
C1303       C  0.99990062  0.85933104  0.29597602     0.95550
C1304       C  0.99999149  0.87025014  0.40989950     0.95330
N1305       N  0.59542756  0.52237531  0.37885705    -0.06810
N1306       N  0.61726716  0.53776185  0.39796830    -0.59320
N1307       N  0.59637104  0.97864786  0.32276945    -0.04930
N1308       N  0.62444861  0.96328501  0.30627306    -0.60570
N1309       N  0.59638912  0.52249049  0.32277259    -0.06840
N1310       N  0.62449715  0.53784872  0.30628282    -0.59590
N1311       N  0.59522737  0.97861602  0.37893018    -0.04570
N1312       N  0.61679600  0.96328207  0.39814863    -0.60660
Mn1313     Mn  0.55981446  0.94059199  0.35067113     1.18440
C1314       C  0.63047116  0.50054069  0.40982934     0.97640
C1315       C  0.64122773  0.50056117  0.29602529     0.98300
N1316       N  0.90443895  0.97869912  0.37886446    -0.06860
N1317       N  0.88252287  0.96323582  0.39793192    -0.63170
N1318       N  0.90346066  0.52252478  0.32278991    -0.05660
N1319       N  0.87536670  0.53786669  0.30628952    -0.63840
N1320       N  0.90349331  0.97868146  0.32277826    -0.06360
N1321       N  0.87542209  0.96330231  0.30627817    -0.63430
N1322       N  0.90462454  0.52246111  0.37897867    -0.05260
N1323       N  0.88296474  0.53771344  0.39819020    -0.64120
Mn1324     Mn  0.94000004  0.94071450  0.35070180     1.10660
C1325       C  0.86924346  0.50039868  0.40981983     0.98860
C1326       C  0.85863862  0.50057125  0.29602717     0.98930
N1327       N  0.52187652  0.59708394  0.32282134    -0.06370
N1328       N  0.53725129  0.62518183  0.30632721    -0.61750
N1329       N  0.97808445  0.59613057  0.37886631    -0.05690
N1330       N  0.96268467  0.61807287  0.39793755    -0.58480
N1331       N  0.52183879  0.59572560  0.37902609    -0.07000
N1332       N  0.53715366  0.61712531  0.39831162    -0.61310
N1333       N  0.97804314  0.59708238  0.32280242    -0.05990
N1334       N  0.96270495  0.62518242  0.30630513    -0.58500
Mn1335     Mn  0.55988585  0.56043584  0.35072448     1.20190
Mn1336     Mn  0.94004191  0.56055928  0.35071419     1.10090
Cl1337     Cl  0.99993190  0.50057933  0.35049373    -0.86470
C1338       C  0.99998827  0.64194643  0.29606376     0.95860
C1339       C  0.99988784  0.63101413  0.40989706     0.95660
C1340       C  0.49972968  0.77332563  0.50074955     0.00060
C1341       C  0.49967983  0.72803282  0.50072115     0.00060
C1342       C  0.77229359  0.99982110  0.50068993     0.00060
C1343       C  0.72702727  0.00048578  0.50077681     0.00060
C1344       C  0.49996979  0.75058266  0.25074152    -0.02990
C1345       C  0.99998885  0.79051787  0.26607693    -0.13780
C1346       C  0.99992061  0.82281684  0.27913020    -0.15340
C1347       C  0.99999428  0.67846441  0.27921978    -0.13780
C1348       C  0.99996222  0.71073010  0.26614106    -0.15340
C1349       C  0.53825288  0.65759760  0.44765532    -0.13850
C1350       C  0.99975000  0.65580236  0.43314112     0.08300
C1351       C  0.96097001  0.67748727  0.44114894    -0.13850
C1352       C  0.96085698  0.70096126  0.46316132    -0.13850
C1353       C  0.49930965  0.70252942  0.47761507     0.08300
C1354       C  0.53788327  0.68048280  0.46984913    -0.13850
H1355       H  0.56849944  0.64097464  0.44196343     0.12280
H1356       H  0.93087850  0.67664353  0.43028963     0.12280
H1357       H  0.93084770  0.71788704  0.46896781     0.12280
H1358       H  0.56783273  0.68155335  0.48083023     0.12280
C1359       C  0.53886837  0.82404620  0.44130131    -0.13850
C1360       C  0.00008140  0.84558473  0.43318230     0.08300
C1361       C  0.96147403  0.84371597  0.44760801    -0.13850
C1362       C  0.96172333  0.82085492  0.46980724    -0.13850
C1363       C  0.50028419  0.79890705  0.47767087     0.08300
C1364       C  0.53886362  0.80059047  0.46332284    -0.13850
H1365       H  0.56904254  0.82496123  0.43051458     0.12280
H1366       H  0.93121951  0.86023152  0.44183272     0.12280
H1367       H  0.93168128  0.81969582  0.48070795     0.12280
H1368       H  0.56886545  0.78374032  0.46920917     0.12280
C1369       C  0.66178232  0.96078349  0.44605236    -0.13850
C1370       C  0.65524493  0.50061713  0.43309410     0.08300
C1371       C  0.67215656  0.54058616  0.44269979    -0.13850
C1372       C  0.69540445  0.54063381  0.46478497    -0.13850
C1373       C  0.70163542  0.00083875  0.47766351     0.08300
C1374       C  0.68462403  0.96096529  0.46825231    -0.13850
H1375       H  0.64901632  0.92953954  0.43911205     0.12280
H1376       H  0.66762441  0.57174890  0.43308957     0.12280
H1377       H  0.70860229  0.57161631  0.47184467     0.12280
H1378       H  0.68945677  0.92997836  0.47800254     0.12280
C1379       C  0.82723995  0.96017374  0.44252222    -0.13850
C1380       C  0.84427299  0.50019019  0.43303604     0.08300
C1381       C  0.83765387  0.53993651  0.44606233    -0.13850
C1382       C  0.81465701  0.53960598  0.46821972    -0.13850
C1383       C  0.79757247  0.99967882  0.47752668     0.08300
C1384       C  0.80384392  0.95997660  0.46456610    -0.13850
H1385       H  0.83181176  0.92907687  0.43285611     0.12280
H1386       H  0.85049600  0.57121941  0.43921664     0.12280
H1387       H  0.80981911  0.57052068  0.47803501     0.12280
H1388       H  0.79061942  0.92894285  0.47154389     0.12520
C1389       C  0.67922331  0.46300829  0.56134264    -0.13850
C1390       C  0.65421340  0.50044137  0.56825258     0.08300
C1391       C  0.65267799  0.53752339  0.55266478    -0.13850
C1392       C  0.67574954  0.03713742  0.53051766    -0.13850
C1393       C  0.70132222  0.00003894  0.52386323     0.08300
C1394       C  0.70284478  0.46292579  0.53937992    -0.13850
H1395       H  0.68092910  0.43403009  0.57305438     0.12280
H1396       H  0.63341971  0.06667554  0.55752391     0.12280
H1397       H  0.67424322  0.06603874  0.51873909     0.12280
H1398       H  0.72230344  0.43395196  0.53443899     0.12280
C1399       C  0.82211206  0.53866374  0.56039323    -0.13850
C1400       C  0.84493274  0.50035161  0.56811188     0.08300
C1401       C  0.84442157  0.96220614  0.55328908    -0.13850
C1402       C  0.82153370  0.96242828  0.53109725    -0.13850
C1403       C  0.79814418  0.00044655  0.52367262     0.08300
C1404       C  0.79859038  0.53858856  0.53840382    -0.13850
H1405       H  0.82199561  0.56847194  0.57149843     0.12280
H1406       H  0.86198509  0.93235061  0.55875952     0.12280
H1407       H  0.82137287  0.93271729  0.51990840     0.12280
H1408       H  0.78066905  0.56818817  0.53285635     0.12280
C1409       C  0.96134890  0.65663824  0.55347187    -0.13850
C1410       C  0.99953806  0.65561758  0.56824891     0.08300
C1411       C  0.53808887  0.67801994  0.56049245    -0.13850
C1412       C  0.53824449  0.70152015  0.53848782    -0.13850
C1413       C  0.50008448  0.70237383  0.52378104     0.08300
C1414       C  0.96178719  0.67951693  0.53127476    -0.13850
H1415       H  0.93130232  0.63942748  0.55896782     0.12280
H1416       H  0.56793881  0.67776266  0.57155904     0.12280
H1417       H  0.56804877  0.71905178  0.53289299     0.12280
H1418       H  0.93206430  0.68001224  0.52009912     0.12280
C1419       C  0.96111322  0.82263535  0.56066846    -0.13850
C1420       C  0.99939629  0.84559173  0.56832652     0.08300
C1421       C  0.53744925  0.84519141  0.55343895    -0.13850
C1422       C  0.53715127  0.82235071  0.53123296    -0.13850
C1423       C  0.49914575  0.79890774  0.52383805     0.08300
C1424       C  0.96110527  0.79917941  0.53864999    -0.13850
H1425       H  0.93137560  0.82242162  0.57182443     0.12280
H1426       H  0.56727752  0.86285989  0.55885716     0.12280
H1427       H  0.56677038  0.82234535  0.51997342     0.12280
H1428       H  0.93150370  0.78123638  0.53312445     0.12280
C1429       C  0.57209988  0.75036208  0.22228689    -0.13780
C1430       C  0.53983913  0.75048936  0.23536247    -0.15340
C1431       C  0.96007027  0.75057853  0.23538684    -0.13780
C1432       C  0.92776649  0.75060900  0.22234262    -0.15340
C1433       C  0.78856786  0.56867113  0.03226059    -0.13850
C1434       C  0.74937956  0.54849947  0.02390779     0.08300
C1435       C  0.71037000  0.55180117  0.03780005    -0.13850
C1436       C  0.71053665  0.57515268  0.05985096    -0.13850
C1437       C  0.74987633  0.59507139  0.06842974     0.08300
C1438       C  0.78892677  0.59154559  0.05445878    -0.13850
H1439       H  0.81894545  0.56621938  0.02170971     0.12280
H1440       H  0.67989522  0.53629242  0.03153824     0.12280
H1441       H  0.68000018  0.57734289  0.07026885     0.12280
H1442       H  0.81963317  0.60675663  0.06058963     0.12280
C1443       C  0.79010559  0.94666287  0.03696529    -0.13850
C1444       C  0.75045604  0.95233715  0.02387957     0.08300
C1445       C  0.71071148  0.93456383  0.03302470    -0.13850
C1446       C  0.71047740  0.91162982  0.05519745    -0.13850
C1447       C  0.75015712  0.90567717  0.06837106     0.08300
C1448       C  0.79002434  0.92325593  0.05900640    -0.13850
H1449       H  0.82099546  0.96038987  0.03009572     0.12280
H1450       H  0.67984279  0.93892075  0.02310332     0.12280
H1451       H  0.67932243  0.89832786  0.06194509     0.12280
H1452       H  0.82106567  0.91916308  0.06878547     0.12280
C1453       C  0.71179843  0.57196836  0.97038227    -0.13850
C1454       C  0.74994907  0.54870837  0.97772265     0.08300
C1455       C  0.78792002  0.54920459  0.96286328    -0.13850
C1456       C  0.78771334  0.57268063  0.94085691    -0.13850
C1457       C  0.74931312  0.59548205  0.93325478     0.08300
C1458       C  0.71131459  0.59486961  0.94818552    -0.13850
H1459       H  0.68222537  0.57179101  0.98167682     0.12280
H1460       H  0.81763489  0.53141646  0.96834375     0.12280
H1461       H  0.81741400  0.57262267  0.92967090     0.12280
H1462       H  0.68139727  0.61241654  0.94280941     0.12280
C1463       C  0.71097562  0.95022708  0.96348771    -0.13850
C1464       C  0.74965545  0.95215751  0.97774398     0.08300
C1465       C  0.78827473  0.93039565  0.96980824    -0.13850
C1466       C  0.78846351  0.90748201  0.94762283    -0.13850
C1467       C  0.74974762  0.90537715  0.93328907     0.08300
C1468       C  0.71091735  0.92672765  0.94148597    -0.13850
H1469       H  0.68093088  0.96693592  0.96942835     0.12280
H1470       H  0.81840451  0.93175112  0.98062824     0.12280
H1471       H  0.81875950  0.89112440  0.94178293     0.12280
H1472       H  0.68065779  0.92563332  0.93077477     0.12280
C1473       C  0.99923154  0.67845287  0.72228199    -0.13780
C1474       C  0.99932939  0.71069758  0.73538095    -0.15340
C1475       C  0.99938020  0.82279659  0.72238118    -0.13780
C1476       C  0.99928313  0.79049755  0.73544147    -0.15340
C1477       C  0.57142970  0.75075561  0.77925993    -0.13780
C1478       C  0.53917522  0.75062338  0.76617175    -0.15340
C1479       C  0.92713291  0.75024140  0.77921951    -0.13780
C1480       C  0.95940162  0.75041485  0.76614700    -0.15340
C1481       C  0.78917392  0.50054552  0.73534841    -0.13780
C1482       C  0.82141979  0.50050509  0.72225432    -0.15340
C1483       C  0.70939631  0.50054884  0.73538794    -0.13780
C1484       C  0.67711618  0.50072379  0.72232160    -0.15340
C1485       C  0.74926147  0.54036484  0.76613344    -0.13780
C1486       C  0.74912002  0.57262480  0.77921708    -0.15340
C1487       C  0.74951851  0.92831127  0.77919702    -0.13780
C1488       C  0.74939317  0.96057089  0.76610396    -0.15340
C1489       C  0.57167290  0.71285725  0.03114142    -0.13850
C1490       C  0.54784245  0.75072876  0.02390683     0.08300
C1491       C  0.54787019  0.78861100  0.03885047    -0.13850
C1492       C  0.57148435  0.78858759  0.06082266    -0.13850
C1493       C  0.59483113  0.75043444  0.06831628     0.08300
C1494       C  0.59464568  0.71252495  0.05331080    -0.13850
H1495       H  0.57187837  0.68336158  0.01977974     0.12280
H1496       H  0.52964496  0.81811495  0.03345401     0.12280
H1497       H  0.57108891  0.81820934  0.07207457     0.12280
H1498       H  0.61260909  0.68279887  0.05860101     0.12280
C1499       C  0.90478426  0.78791655  0.05331498    -0.13850
C1500       C  0.90474329  0.75006387  0.06836083     0.08300
C1501       C  0.92797889  0.71185938  0.06085516    -0.13850
C1502       C  0.95138662  0.71174358  0.03882800    -0.13850
C1503       C  0.95130862  0.74958614  0.02385634     0.08300
C1504       C  0.92755788  0.78749471  0.03109477    -0.13850
H1505       H  0.88688205  0.81766993  0.05861936     0.12280
H1506       H  0.92846241  0.68228063  0.07214229     0.12280
H1507       H  0.96957673  0.68222372  0.03342398     0.12280
H1508       H  0.92730037  0.81696051  0.01970812     0.12280
C1509       C  0.54777047  0.71189773  0.96274076    -0.13850
C1510       C  0.54784309  0.74970342  0.97773671     0.08300
C1511       C  0.57163033  0.78762694  0.97053413    -0.13850
C1512       C  0.59444972  0.78809723  0.94832640    -0.13850
C1513       C  0.59450218  0.75027762  0.93325883     0.08300
C1514       C  0.57122204  0.71206161  0.94072822    -0.13850
H1515       H  0.52955828  0.68236440  0.96811705     0.12280
H1516       H  0.57188714  0.81706471  0.98194058     0.12280
H1517       H  0.61238213  0.81785799  0.94305001     0.12280
H1518       H  0.57074410  0.68250529  0.92942522     0.12280
C1519       C  0.90446974  0.71249932  0.94827707    -0.13850
C1520       C  0.90436533  0.75038702  0.93325279     0.08300
C1521       C  0.92773967  0.78853394  0.94074582    -0.13850
C1522       C  0.95132020  0.78856360  0.96272872    -0.13850
C1523       C  0.95129027  0.75069348  0.97768444     0.08300
C1524       C  0.92741080  0.71283779  0.97045699    -0.13850
H1525       H  0.88647754  0.68278172  0.94298986     0.12280
H1526       H  0.92818999  0.81814370  0.92948307     0.12280
H1527       H  0.96957479  0.81805982  0.96812086     0.12280
H1528       H  0.92715413  0.68335312  0.98182877     0.12280
C1529       C  0.82211195  0.50052164  0.27919414    -0.13780
C1530       C  0.78982315  0.50042833  0.26613770    -0.15340
C1531       C  0.71005330  0.50045295  0.26615097    -0.13780
C1532       C  0.67776528  0.50053139  0.27920419    -0.15340
C1533       C  0.74993596  0.54025475  0.23539803    -0.13780
C1534       C  0.74994006  0.57255158  0.22234625    -0.15340
C1535       C  0.74987966  0.96046640  0.23542757    -0.13780
C1536       C  0.74982558  0.92818818  0.22235612    -0.15340
loop_ 
_geom_bond_atom_site_label_1 
_geom_bond_atom_site_label_2 
_geom_bond_distance 
_geom_bond_site_symmetry_2 
_ccdc_geom_bond_type 
C1          C383   1.465       .  S
C1          C762   1.465       .  S
C1          C763   1.465       .  S
C1          C765   1.465       .  S
C2          C351   1.481       .  S
C2          C371   1.482   1_554  S
C2          C771   1.361       .  D
C3          C338   1.482       .  S
C3          C358   1.481   1_554  S
C3          C770   1.361   1_455  D
C4          C336   1.466       .  S
C4          C713   1.465       .  S
C4          C715   1.465       .  S
C4          C717   1.465       .  S
C5          C326   1.465   1_655  S
C5         C1090   1.465       .  S
C5         C1092   1.465       .  S
C5         C1096   1.465       .  S
C6          C292   1.479       .  S
C6          C312   1.480   1_554  S
C6          C391   1.360       .  D
C7          C282   1.480       .  S
C7          C302   1.481   1_554  S
C7          C390   1.360   1_545  D
N8            N9   1.320       .  A
N8           N14   1.314       .  A
N8          Mn37   2.198       .  S
N9           C16   1.353       .  A
N10          N12   1.317       .  A
N10          N11   1.321       .  A
N10         Mn26   2.206       .  S
N11          C17   1.351       .  A
N12          N13   1.320       .  A
N12         Mn37   2.202       .  S
N13          C17   1.350       .  A
N14          N15   1.320       .  A
N14         Mn26   2.199       .  S
N15          C16   1.353       .  A
C16         C315   1.476       .  S
C17         C335   1.435       .  S
N18          N24   1.317       .  A
N18          N19   1.321       .  A
N18         Mn48   2.205       .  S
N19          C27   1.351       .  A
N20          N21   1.320       .  A
N20          N22   1.315       .  A
N20         Mn26   2.198       .  S
N21          C28   1.353       .  A
N22          N23   1.321       .  A
N22         Mn48   2.200       .  S
N23          C28   1.353       .  A
N24          N25   1.320       .  A
N24         Mn26   2.201       .  S
N25          C27   1.350       .  A
Mn26        Cl50   2.546       .  S
C27         C327   1.434       .  S
C28         C368   1.476       .  S
N29          N30   1.321       .  A
N29          N35   1.317       .  A
N29         Mn37   2.206       .  S
N30          C38   1.351       .  A
N31          N33   1.315       .  A
N31          N32   1.320       .  A
N31         Mn49   2.196       .  S
N32          C39   1.353       .  A
N33          N34   1.320       .  A
N33         Mn37   2.200       .  S
N34          C39   1.353       .  A
N35          N36   1.320       .  A
N35         Mn49   2.202       .  S
N36          C38   1.350       .  A
Mn37        Cl50   2.545       .  S
C38         C325   1.434       .  S
C39         C361   1.475       .  S
N40          N41   1.320       .  A
N40          N46   1.315       .  A
N40         Mn48   2.197       .  S
N41          C51   1.353       .  A
N42          N43   1.321       .  A
N42          N44   1.317       .  A
N42         Mn49   2.205       .  S
N43          C52   1.351       .  A
N44          N45   1.320       .  A
N44         Mn48   2.202       .  S
N45          C52   1.350       .  A
N46          N47   1.321       .  A
N46         Mn49   2.200       .  S
N47          C51   1.353       .  A
Mn48        Cl50   2.545       .  S
Mn49        Cl50   2.546       .  S
C51         C305   1.476       .  S
C52         C334   1.434       .  S
N53          N54   1.321       .  A
N53          N59   1.317       .  A
N53         Mn82   2.204       .  S
N54          C61   1.351       .  A
N55          N57   1.314       .  A
N55          N56   1.320       .  A
N55         Mn71   2.197       .  S
N56          C62   1.353       .  A
N57          N58   1.320       .  A
N57         Mn82   2.200       .  S
N58          C62   1.354       .  A
N59          N60   1.320       .  A
N59         Mn71   2.202       .  S
N60          C61   1.350       .  A
C61         C384   1.434       .  S
C62         C295   1.477       .  S
N63          N69   1.315       .  A
N63          N64   1.320       .  A
N63         Mn93   2.197       .  S
N64          C72   1.353       .  A
N65          N66   1.321       .  A
N65          N67   1.317       .  A
N65         Mn71   2.204       .  S
N66          C73   1.351       .  A
N67          N68   1.320       .  A
N67         Mn93   2.202       .  S
N68          C73   1.350       .  A
N69          N70   1.320       .  A
N69         Mn71   2.200       .  S
N70          C72   1.353       .  A
Mn71        Cl95   2.544       .  S
C72         C348   1.475       .  S
C73         C280   1.434       .  S
N74          N75   1.320       .  A
N74          N80   1.315       .  A
N74         Mn82   2.199       .  S
N75          C83   1.353       .  A
N76          N78   1.317       .  A
N76          N77   1.321       .  A
N76         Mn94   2.205       .  S
N77          C84   1.351       .  A
N78          N79   1.320       .  A
N78         Mn82   2.201       .  S
N79          C84   1.350       .  A
N80          N81   1.321       .  A
N80         Mn94   2.201       .  S
N81          C83   1.353       .  A
Mn82        Cl95   2.547       .  S
C83         C341   1.476       .  S
C84         C277   1.434       .  S
N85          N86   1.320       .  A
N85          N91   1.317       .  A
N85         Mn93   2.204       .  S
N86          C96   1.350       .  A
N87          N88   1.320       .  A
N87          N89   1.315       .  A
N87         Mn94   2.197       .  S
N88          C97   1.353       .  A
N89          N90   1.321       .  A
N89         Mn93   2.200       .  S
N90          C97   1.354       .  A
N91          N92   1.320       .  A
N91         Mn94   2.202       .  S
N92          C96   1.350       .  A
Mn93        Cl95   2.546       .  S
Mn94        Cl95   2.545       .  S
C96         C382   1.434       .  S
C97         C285   1.477       .  S
N98          N99   1.321       .  A
N98         N488   1.317   1_545  A
N98        Mn127   2.206       .  S
N99         C106   1.351       .  A
N100        N101   1.320       .  A
N100        N486   1.315       .  A
N100       Mn116   2.199       .  S
N101        C491   1.353       .  A
N102        N103   1.321       .  A
N102        N484   1.315   1_545  A
N102       Mn127   2.200       .  S
N103        C107   1.353       .  A
N104        N105   1.320       .  A
N104        N482   1.317       .  A
N104       Mn116   2.201       .  S
N105        C490   1.350       .  A
C106        N489   1.350   1_545  A
C106        C332   1.434       .  S
C107        N485   1.353   1_545  A
C107        C238   1.476       .  S
N108        N109   1.320       .  A
N108        N882   1.315       .  A
N108       Mn138   2.198       .  S
N109        C117   1.353       .  A
N110        N111   1.321       .  A
N110        N880   1.317   1_455  A
N110       Mn116   2.206       .  S
N111        C886   1.351   1_455  A
N112        N113   1.320       .  A
N112        N878   1.317       .  A
N112       Mn138   2.201       .  S
N113        C118   1.350       .  A
N114        N115   1.320       .  A
N114        N876   1.315   1_455  A
N114       Mn116   2.200       .  S
N115        C885   1.353   1_455  A
Mn116     Cl1292   2.546   1_455  S
C117        N883   1.353       .  A
C117        C268   1.476       .  S
C118        N879   1.351       .  A
C118        C323   1.434       .  S
N119        N120   1.320       .  A
N119        N893   1.315   1_455  A
N119       Mn127   2.197       .  S
N120        C896   1.353   1_455  A
N121        N122   1.321       .  A
N121        N891   1.317       .  A
N121       Mn139   2.205       .  S
N122        C129   1.351       .  A
N123        N124   1.320       .  A
N123        N889   1.317   1_455  A
N123       Mn127   2.202       .  S
N124        C897   1.350   1_455  A
N125        N126   1.321       .  A
N125        N887   1.315       .  A
N125       Mn139   2.200       .  S
N126        C128   1.353       .  A
Mn127      Cl908   2.545   1_455  S
C128        N888   1.353       .  A
C128        C258   1.476       .  S
C129        N892   1.350       .  A
C129        C321   1.434       .  S
N130        N131   1.321       .  A
N130        N520   1.317       .  A
N130       Mn138   2.205       .  S
N131        C525   1.351       .  A
N132        N133   1.320       .  A
N132        N518   1.315   1_545  A
N132       Mn139   2.198       .  S
N133        C142   1.353       .  A
N134        N135   1.320       .  A
N134        N516   1.315       .  A
N134       Mn138   2.199       .  S
N135        C526   1.353       .  A
N136        N137   1.320       .  A
N136        N514   1.317   1_545  A
N136       Mn139   2.202       .  S
N137        C141   1.350       .  A
Mn138      Cl524   2.546       .  S
Mn139      Cl140   2.546       .  S
Cl140     Mn1268   2.546   1_545  S
Cl140      Mn895   2.545       .  S
Cl140      Mn522   2.546   1_545  S
C141        N515   1.351   1_545  A
C141        C330   1.435       .  S
C142        N519   1.353   1_545  A
C142        C248   1.476       .  S
N143        N144   1.321       .  A
N143        N917   1.317       .  A
N143       Mn172   2.204       .  S
N144        C151   1.351       .  A
N145        N146   1.320       .  A
N145        N915   1.315   1_455  A
N145       Mn161   2.198       .  S
N146        C920   1.353   1_455  A
N147        N148   1.320       .  A
N147        N913   1.315       .  A
N147       Mn172   2.199       .  S
N148        C152   1.353       .  A
N149        N150   1.320       .  A
N149        N911   1.317   1_455  A
N149       Mn161   2.202       .  S
N150        C919   1.350   1_455  A
C151        N918   1.350       .  A
C151        C194   1.434       .  S
C152        N914   1.353       .  A
C152        C208   1.476       .  S
N153        N154   1.320       .  A
N153        N543   1.314   1_545  A
N153       Mn183   2.197       .  S
N154        C162   1.353       .  A
N155        N156   1.320       .  A
N155        N541   1.317       .  A
N155       Mn161   2.203       .  S
N156        C547   1.350       .  A
N157        N158   1.320       .  A
N157        N539   1.317   1_545  A
N157       Mn183   2.203       .  S
N158        C163   1.351       .  A
N159        N160   1.320       .  A
N159        N537   1.314       .  A
N159       Mn161   2.200       .  S
N160        C546   1.353       .  A
Mn161     Cl1337   2.546   1_455  S
C162        N544   1.354   1_545  A
C162        C218   1.477       .  S
C163        N540   1.350   1_545  A
C163        C380   1.434       .  S
N164        N165   1.320       .  A
N164        N554   1.315       .  A
N164       Mn172   2.198       .  S
N165        C557   1.353       .  A
N166        N167   1.321       .  A
N166        N552   1.317   1_545  A
N166       Mn184   2.204       .  S
N167        C174   1.351       .  A
N168        N169   1.320       .  A
N168        N550   1.317       .  A
N168       Mn172   2.202       .  S
N169        C558   1.350       .  A
N170        N171   1.321       .  A
N170        N548   1.315   1_545  A
N170       Mn184   2.201       .  S
N171        C173   1.354       .  A
Mn172      Cl569   2.545       .  S
C173        N549   1.353   1_545  A
C173        C228   1.478       .  S
C174        N553   1.350   1_545  A
C174        C377   1.434       .  S
N175        N176   1.321       .  A
N175        N949   1.317   1_455  A
N175       Mn183   2.204       .  S
N176        C954   1.351   1_455  A
N177        N178   1.320       .  A
N177        N947   1.315       .  A
N177       Mn184   2.198       .  S
N178        C187   1.353       .  A
N179        N180   1.320       .  A
N179        N945   1.315   1_455  A
N179       Mn183   2.200       .  S
N180        C955   1.353   1_455  A
N181        N182   1.320       .  A
N181        N943   1.317       .  A
N181       Mn184   2.202       .  S
N182        C186   1.350       .  A
Mn183      Cl953   2.545   1_455  S
Mn184      Cl185   2.547       .  S
Cl185     Mn1313   2.546   1_545  S
Cl185      Mn556   2.545   1_545  S
Cl185      Mn951   2.545       .  S
C186        N944   1.351       .  A
C186        C195   1.434       .  S
C187        N948   1.353       .  A
C187        C198   1.476       .  S
C188        C211   1.481   1_655  S
C188        C271   1.481       .  S
C188        C189   1.360       .  D
C189        C201   1.481       .  S
C189        C261   1.481   1_655  S
C190        C231   1.480       .  S
C190        C251   1.481       .  S
C190        C191   1.360       .  D
C191        C221   1.480       .  S
C191        C241   1.483       .  S
C192        C278   1.465   1_655  S
C192        C961   1.465       .  S
C192        C964   1.465       .  S
C192       C1047   1.465       .  S
C193        C960   1.465       .  S
C193        C194   1.206       .  T
C195        C196   1.206       .  T
C196        C960   1.465       .  S
C197        C202   1.398       .  A
C197        C966   1.405   1_455  A
C197        H203   1.083       .  S
C198        C199   1.405       .  A
C198        C965   1.405       .  A
C199        C200   1.398       .  A
C199        H204   1.083       .  S
C200        C969   1.402       .  A
C200        H205   1.083       .  S
C201        C202   1.401   1_655  A
C201        C968   1.402       .  A
C202        H206   1.083       .  S
C207        C212   1.398       .  A
C207        C976   1.405       .  A
C207        H213   1.083       .  S
C208        C209   1.405       .  A
C208        C975   1.405       .  A
C209        C210   1.398       .  A
C209        H214   1.083       .  S
C210        C979   1.401       .  A
C210        H215   1.083       .  S
C211        C212   1.402       .  A
C211        C978   1.401   1_455  A
C212        H216   1.083       .  S
C217        C222   1.398       .  A
C217        C602   1.405       .  A
C217        H223   1.083       .  S
C218        C219   1.406       .  A
C218        C601   1.405   1_545  A
C219        C220   1.398       .  A
C219        H224   1.083       .  S
C220        C605   1.401       .  A
C220        H225   1.083       .  S
C221        C222   1.401       .  A
C221        C604   1.401       .  A
C222        H226   1.083       .  S
C227        C232   1.399       .  A
C227        C612   1.406       .  A
C227        H233   1.083       .  S
C228        C229   1.406       .  A
C228        C611   1.406   1_545  A
C229        C230   1.398       .  A
C229        H234   1.083       .  S
C230        C615   1.401   1_545  A
C230        H235   1.083       .  S
C231        C232   1.401       .  A
C231        C614   1.401       .  A
C232        H236   1.083       .  S
C237        C238   1.405   1_565  A
C237        C242   1.398       .  A
C237        H243   1.083       .  S
C238        C239   1.405       .  A
C239        C624   1.398       .  A
C239        H628   1.083       .  S
C240        C241   1.402       .  A
C240        C623   1.398       .  A
C240        H245   1.083       .  S
C241        C626   1.403       .  A
C242        C625   1.403   1_565  A
C242        H246   1.083       .  S
H244        C623   1.083       .  S
C247        C248   1.405       .  A
C247        C252   1.398       .  A
C247        H253   1.083       .  S
C248        C633   1.405   1_545  A
C249        C250   1.398       .  A
C249        C632   1.405       .  A
C249        H254   1.083       .  S
C250        C251   1.401       .  A
C250        H255   1.083       .  S
C251        C636   1.402       .  A
C252        C635   1.402       .  A
C252        H256   1.083       .  S
C257        C258   1.405       .  A
C257        C262   1.398       .  A
C257        H263   1.083       .  S
C258       C1027   1.405       .  A
C259        C260   1.398       .  A
C259       C1026   1.405   1_455  A
C259        H264   1.083       .  S
C260        C261   1.402       .  A
C260        H265   1.083       .  S
C261       C1030   1.401   1_455  A
C262       C1029   1.401       .  A
C262        H266   1.083       .  S
C267        C268   1.405       .  A
C267        C272   1.398       .  A
C267        H273   1.083       .  S
C268       C1037   1.405       .  A
C269        C270   1.398       .  A
C269       C1036   1.405   1_455  A
C269        H274   1.083       .  S
C270        C271   1.401   1_455  A
C270        H275   1.083       .  S
C271       C1040   1.402       .  A
C272       C1039   1.402       .  A
C272        H276   1.083       .  S
C277        C278   1.206       .  T
C279        C960   1.465       .  S
C279        C280   1.206       .  T
C281        C282   1.401       .  A
C281        C286   1.398       .  A
C281        H287   1.083       .  S
C282        C283   1.401       .  A
C283        C284   1.398       .  A
C283        H288   1.083       .  S
C284        C285   1.406       .  A
C284        H289   1.083       .  S
C285        C286   1.405       .  A
C286        H290   1.083       .  S
C291        C292   1.401       .  A
C291        C296   1.398       .  A
C291        H297   1.083       .  S
C292        C293   1.401       .  A
C293        C294   1.398       .  A
C293        H298   1.083       .  S
C294        C295   1.405       .  A
C294        H299   1.083       .  S
C295        C296   1.406       .  A
C296        H300   1.083       .  S
C301        C302   1.402       .  A
C301        C306   1.398       .  A
C301        H307   1.083       .  S
C302        C303   1.402       .  A
C303        C304   1.398       .  A
C303        H308   1.083       .  S
C304        C305   1.405       .  A
C304        H309   1.083       .  S
C305        C306   1.405       .  A
C306        H310   1.083       .  S
C311        C312   1.402       .  A
C311        C316   1.398       .  A
C311        H317   1.083       .  S
C312        C313   1.401       .  A
C313        C314   1.398       .  A
C313        H318   1.083       .  S
C314        C315   1.405       .  A
C314        H319   1.083       .  S
C315        C316   1.405       .  A
C316        H320   1.083       .  S
C321        C322   1.206       .  T
C322        C773   1.465       .  S
C323        C324   1.206       .  T
C324        C773   1.465       .  S
C325        C326   1.206       .  T
C327        C328   1.206       .  T
C328        C773   1.465       .  S
C329        C388   1.465       .  S
C329        C330   1.206       .  T
C331        C388   1.465       .  S
C331        C332   1.206       .  T
C333        C388   1.465       .  S
C333        C334   1.206       .  T
C335        C336   1.206       .  T
C337        C338   1.402       .  A
C337        C342   1.398       .  A
C337        H343   1.083       .  S
C338        C339   1.402       .  A
C339        C340   1.398       .  A
C339        H344   1.083       .  S
C340        C341   1.405       .  A
C340        H345   1.083       .  S
C341        C342   1.405       .  A
C342        H346   1.083       .  S
C347        C348   1.405       .  A
C347        C352   1.398       .  A
C347        H353   1.083       .  S
C348        C349   1.405       .  A
C349        C350   1.398       .  A
C349        H354   1.083       .  S
C350        C351   1.402       .  A
C350        H355   1.083       .  S
C351        C352   1.401       .  A
C352        H356   1.083       .  S
C357        C358   1.402       .  A
C357        C362   1.398       .  A
C357        H363   1.083       .  S
C358        C359   1.401       .  A
C359        C360   1.398       .  A
C359        H364   1.083       .  S
C360        C361   1.405       .  A
C360        H365   1.083       .  S
C361        C362   1.405       .  A
C362        H366   1.083       .  S
C367        C368   1.405       .  A
C367        C372   1.398       .  A
C367        H373   1.083       .  S
C368        C369   1.405       .  A
C369        C370   1.398       .  A
C369        H374   1.083       .  S
C370        C371   1.402       .  A
C370        H375   1.083       .  S
C371        C372   1.402       .  A
C372        H376   1.083       .  S
C377        C378   1.206       .  T
C378        C385   1.465       .  S
C379        C385   1.465       .  S
C379        C380   1.206       .  T
C381        C385   1.465       .  S
C381        C382   1.206       .  T
C383        C384   1.206       .  T
C385        C767   1.465   1_545  S
C386        C735   1.481       .  S
C386        C755   1.482   1_554  S
C386       C1155   1.361       .  D
C387        C722   1.482       .  S
C387        C742   1.481   1_554  S
C387       C1154   1.361   1_455  D
C388        C720   1.466   1_545  S
C389       C1474   1.465       .  S
C389       C1476   1.465       .  S
C389        C710   1.465   1_655  S
C389       C1480   1.465       .  S
C390        C676   1.479       .  S
C390        C696   1.480   1_554  S
C391        C666   1.480       .  S
C391        C686   1.481   1_554  S
N392        N393   1.320       .  A
N392        N398   1.314       .  A
N392       Mn421   2.198       .  S
N393        C400   1.353       .  A
N394        N396   1.317       .  A
N394        N395   1.321       .  A
N394       Mn410   2.206       .  S
N395        C401   1.351       .  A
N396        N397   1.320       .  A
N396       Mn421   2.202       .  S
N397        C401   1.350       .  A
N398        N399   1.320       .  A
N398       Mn410   2.199       .  S
N399        C400   1.353       .  A
C400        C699   1.476       .  S
C401        C719   1.435       .  S
N402        N408   1.317       .  A
N402        N403   1.321       .  A
N402       Mn432   2.205       .  S
N403        C411   1.351       .  A
N404        N405   1.320       .  A
N404        N406   1.315       .  A
N404       Mn410   2.198       .  S
N405        C412   1.353       .  A
N406        N407   1.321       .  A
N406       Mn432   2.200       .  S
N407        C412   1.353       .  A
N408        N409   1.320       .  A
N408       Mn410   2.201       .  S
N409        C411   1.350       .  A
Mn410      Cl434   2.546       .  S
C411        C711   1.434       .  S
C412        C752   1.476       .  S
N413        N414   1.321       .  A
N413        N419   1.317       .  A
N413       Mn421   2.206       .  S
N414        C422   1.351       .  A
N415        N417   1.315       .  A
N415        N416   1.320       .  A
N415       Mn433   2.196       .  S
N416        C423   1.353       .  A
N417        N418   1.320       .  A
N417       Mn421   2.200       .  S
N418        C423   1.353       .  A
N419        N420   1.320       .  A
N419       Mn433   2.202       .  S
N420        C422   1.350       .  A
Mn421      Cl434   2.545       .  S
C422        C709   1.434       .  S
C423        C745   1.475       .  S
N424        N425   1.320       .  A
N424        N430   1.315       .  A
N424       Mn432   2.197       .  S
N425        C435   1.353       .  A
N426        N427   1.321       .  A
N426        N428   1.317       .  A
N426       Mn433   2.205       .  S
N427        C436   1.351       .  A
N428        N429   1.320       .  A
N428       Mn432   2.202       .  S
N429        C436   1.350       .  A
N430        N431   1.321       .  A
N430       Mn433   2.200       .  S
N431        C435   1.353       .  A
Mn432      Cl434   2.545       .  S
Mn433      Cl434   2.546       .  S
C435        C689   1.476       .  S
C436        C718   1.434       .  S
N437        N438   1.321       .  A
N437        N443   1.317       .  A
N437       Mn466   2.204       .  S
N438        C445   1.351       .  A
N439        N441   1.314       .  A
N439        N440   1.320       .  A
N439       Mn455   2.197       .  S
N440        C446   1.353       .  A
N441        N442   1.320       .  A
N441       Mn466   2.200       .  S
N442        C446   1.354       .  A
N443        N444   1.320       .  A
N443       Mn455   2.202       .  S
N444        C445   1.350       .  A
C445        C768   1.434       .  S
C446        C679   1.477       .  S
N447        N453   1.315       .  A
N447        N448   1.320       .  A
N447       Mn477   2.197       .  S
N448        C456   1.353       .  A
N449        N450   1.321       .  A
N449        N451   1.317       .  A
N449       Mn455   2.204       .  S
N450        C457   1.351       .  A
N451        N452   1.320       .  A
N451       Mn477   2.202       .  S
N452        C457   1.350       .  A
N453        N454   1.320       .  A
N453       Mn455   2.200       .  S
N454        C456   1.353       .  A
Mn455      Cl479   2.544       .  S
C456        C732   1.475       .  S
C457        C664   1.434       .  S
N458        N459   1.320       .  A
N458        N464   1.315       .  A
N458       Mn466   2.199       .  S
N459        C467   1.353       .  A
N460        N462   1.317       .  A
N460        N461   1.321       .  A
N460       Mn478   2.205       .  S
N461        C468   1.351       .  A
N462        N463   1.320       .  A
N462       Mn466   2.201       .  S
N463        C468   1.350       .  A
N464        N465   1.321       .  A
N464       Mn478   2.201       .  S
N465        C467   1.353       .  A
Mn466      Cl479   2.547       .  S
C467        C725   1.476       .  S
C468        C661   1.434       .  S
N469        N470   1.320       .  A
N469        N475   1.317       .  A
N469       Mn477   2.204       .  S
N470        C480   1.350       .  A
N471        N472   1.320       .  A
N471        N473   1.315       .  A
N471       Mn478   2.197       .  S
N472        C481   1.353       .  A
N473        N474   1.321       .  A
N473       Mn477   2.200       .  S
N474        C481   1.354       .  A
N475        N476   1.320       .  A
N475       Mn478   2.202       .  S
N476        C480   1.350       .  A
Mn477      Cl479   2.546       .  S
Mn478      Cl479   2.545       .  S
C480        C766   1.434       .  S
C481        C669   1.477       .  S
N482        N483   1.321       .  A
N482       Mn511   2.206       .  S
N483        C490   1.351       .  A
N484        N485   1.320       .  A
N484       Mn500   2.199       .  S
N486        N487   1.321       .  A
N486       Mn511   2.200       .  S
N487        C491   1.353       .  A
N488        N489   1.320       .  A
N488       Mn500   2.201       .  S
C490        C716   1.434       .  S
C491        C622   1.476       .  S
N492       N1266   1.315       .  A
N492        N493   1.320       .  A
N492       Mn522   2.198       .  S
N493        C501   1.353       .  A
N494        N495   1.321       .  A
N494       N1264   1.317   1_455  A
N494       Mn500   2.206       .  S
N495       C1270   1.351   1_455  A
N496       N1262   1.317       .  A
N496        N497   1.320       .  A
N496       Mn522   2.201       .  S
N497        C502   1.350       .  A
N498       N1260   1.315   1_455  A
N498        N499   1.320       .  A
N498       Mn500   2.200       .  S
N499       C1269   1.353   1_455  A
Mn500      Cl908   2.546   1_465  S
C501       N1267   1.353       .  A
C501        C652   1.476       .  S
C502       N1263   1.351       .  A
C502        C707   1.434       .  S
N503        N504   1.320       .  A
N503       N1277   1.315   1_455  A
N503       Mn511   2.197       .  S
N504       C1280   1.353   1_455  A
N505       N1275   1.317       .  A
N505        N506   1.321       .  A
N505       Mn523   2.205       .  S
N506        C513   1.351       .  A
N507       N1273   1.317   1_455  A
N507        N508   1.320       .  A
N507       Mn511   2.202       .  S
N508       C1281   1.350   1_455  A
N509       N1271   1.315       .  A
N509        N510   1.321       .  A
N509       Mn523   2.200       .  S
N510        C512   1.353       .  A
Mn511     Cl1292   2.545   1_455  S
C512       N1272   1.353       .  A
C512        C642   1.476       .  S
C513       N1276   1.350       .  A
C513        C705   1.434       .  S
N514        N515   1.321       .  A
N514       Mn522   2.205       .  S
N516        N517   1.320       .  A
N516       Mn523   2.198       .  S
N517        C526   1.353       .  A
N518        N519   1.320       .  A
N518       Mn522   2.199       .  S
N520        N521   1.320       .  A
N520       Mn523   2.202       .  S
N521        C525   1.350       .  A
Mn523      Cl524   2.546       .  S
Cl524      Mn884   2.546       .  S
Cl524     Mn1279   2.545       .  S
C525        C714   1.435       .  S
C526        C632   1.476       .  S
N527        N528   1.321       .  A
N527       N1301   1.317       .  A
N527       Mn556   2.204       .  S
N528        C535   1.351       .  A
N529       N1299   1.315   1_455  A
N529        N530   1.320       .  A
N529       Mn545   2.198       .  S
N530       C1304   1.353   1_455  A
N531       N1297   1.315       .  A
N531        N532   1.320       .  A
N531       Mn556   2.199       .  S
N532        C536   1.353       .  A
N533       N1295   1.317   1_455  A
N533        N534   1.320       .  A
N533       Mn545   2.202       .  S
N534       C1303   1.350   1_455  A
C535       N1302   1.350       .  A
C535        C578   1.434       .  S
C536       N1298   1.353       .  A
C536        C592   1.476       .  S
N537        N538   1.320       .  A
N537       Mn567   2.197       .  S
N538        C546   1.353       .  A
N539        N540   1.320       .  A
N539       Mn545   2.203       .  S
N541        N542   1.320       .  A
N541       Mn567   2.203       .  S
N542        C547   1.351       .  A
N543        N544   1.320       .  A
N543       Mn545   2.200       .  S
Mn545      Cl953   2.546   1_465  S
C546        C602   1.477       .  S
C547        C764   1.434       .  S
N548        N549   1.320       .  A
N548       Mn556   2.198       .  S
N550        N551   1.321       .  A
N550       Mn568   2.204       .  S
N551        C558   1.351       .  A
N552        N553   1.320       .  A
N552       Mn556   2.202       .  S
N554        N555   1.321       .  A
N554       Mn568   2.201       .  S
N555        C557   1.354       .  A
C557        C612   1.478       .  S
C558        C761   1.434       .  S
N559        N560   1.321       .  A
N559       N1333   1.317   1_455  A
N559       Mn567   2.204       .  S
N560       C1338   1.351   1_455  A
N561        N562   1.320       .  A
N561       N1331   1.315       .  A
N561       Mn568   2.198       .  S
N562        C571   1.353       .  A
N563       N1329   1.315   1_455  A
N563        N564   1.320       .  A
N563       Mn567   2.200       .  S
N564       C1339   1.353   1_455  A
N565       N1327   1.317       .  A
N565        N566   1.320       .  A
N565       Mn568   2.202       .  S
N566        C570   1.350       .  A
Mn567     Cl1337   2.545   1_455  S
Mn568      Cl569   2.547       .  S
Cl569      Mn929   2.546       .  S
Cl569     Mn1335   2.545       .  S
C570       N1328   1.351       .  A
C570        C579   1.434       .  S
C571       N1332   1.353       .  A
C571        C582   1.476       .  S
C572        C595   1.481   1_655  S
C572        C655   1.481       .  S
C572        C573   1.360       .  D
C573        C585   1.481       .  S
C573        C645   1.481   1_655  S
C574        C615   1.480       .  S
C574        C635   1.481   1_565  S
C574        C575   1.360   1_565  D
C575        C605   1.480       .  S
C575        C625   1.483       .  S
C576       C1345   1.465       .  S
C576       C1348   1.465       .  S
C576        C662   1.465   1_655  S
C576       C1431   1.465       .  S
C577       C1344   1.465       .  S
C577        C578   1.206       .  T
C579        C580   1.206       .  T
C580       C1344   1.465       .  S
C581       C1350   1.405   1_455  A
C581        C586   1.398       .  A
C581        H587   1.083       .  S
C582       C1349   1.405       .  A
C582        C583   1.405       .  A
C583        C584   1.398       .  A
C583        H588   1.083       .  S
C584       C1353   1.402       .  A
C584        H589   1.083       .  S
C585       C1352   1.402       .  A
C585        C586   1.401   1_655  A
C586        H590   1.083       .  S
C591       C1360   1.405       .  A
C591        C596   1.398       .  A
C591        H597   1.083       .  S
C592       C1359   1.405       .  A
C592        C593   1.405       .  A
C593        C594   1.398       .  A
C593        H598   1.083       .  S
C594       C1363   1.401       .  A
C594        H599   1.083       .  S
C595       C1362   1.401   1_455  A
C595        C596   1.402       .  A
C596        H600   1.083       .  S
C601        C606   1.398       .  A
C601        H607   1.083       .  S
C602        C603   1.406       .  A
C603        C604   1.398       .  A
C603        H608   1.083       .  S
C604        H609   1.083       .  S
C605        C606   1.401   1_545  A
C606        H610   1.083       .  S
C611        C616   1.399       .  A
C611        H617   1.083       .  S
C612        C613   1.406       .  A
C613        C614   1.398       .  A
C613        H618   1.083       .  S
C614        H619   1.083       .  S
C615        C616   1.401       .  A
C616        H620   1.083       .  S
C621        C622   1.405       .  A
C621        C626   1.398       .  A
C621        H627   1.083       .  S
C622        C623   1.405       .  A
C624        C625   1.402       .  A
C624        H629   1.083       .  S
C626        H630   1.083       .  S
C631        C632   1.405       .  A
C631        C636   1.398       .  A
C631        H637   1.083       .  S
C633        C634   1.398       .  A
C633        H638   1.083       .  S
C634        C635   1.401   1_565  A
C634        H639   1.083       .  S
C636        H640   1.083       .  S
C641        C642   1.405       .  A
C641        C646   1.398       .  A
C641        H647   1.083       .  S
C642       C1411   1.405       .  A
C643       C1410   1.405   1_455  A
C643        C644   1.398       .  A
C643        H648   1.083       .  S
C644        C645   1.402       .  A
C644        H649   1.083       .  S
C645       C1414   1.401   1_455  A
C646       C1413   1.401       .  A
C646        H650   1.083       .  S
C651        C652   1.405       .  A
C651        C656   1.398       .  A
C651        H657   1.083       .  S
C652       C1421   1.405       .  A
C653       C1420   1.405   1_455  A
C653        C654   1.398       .  A
C653        H658   1.083       .  S
C654        C655   1.401   1_455  A
C654        H659   1.083       .  S
C655       C1424   1.402       .  A
C656       C1423   1.402       .  A
C656        H660   1.083       .  S
C661        C662   1.206       .  T
C663       C1344   1.465       .  S
C663        C664   1.206       .  T
C665        C666   1.401       .  A
C665        C670   1.398       .  A
C665        H671   1.083       .  S
C666        C667   1.401       .  A
C667        C668   1.398       .  A
C667        H672   1.083       .  S
C668        C669   1.406       .  A
C668        H673   1.083       .  S
C669        C670   1.405       .  A
C670        H674   1.083       .  S
C675        C676   1.401       .  A
C675        C680   1.398       .  A
C675        H681   1.083       .  S
C676        C677   1.401       .  A
C677        C678   1.398       .  A
C677        H682   1.083       .  S
C678        C679   1.405       .  A
C678        H683   1.083       .  S
C679        C680   1.406       .  A
C680        H684   1.083       .  S
C685        C686   1.402       .  A
C685        C690   1.398       .  A
C685        H691   1.083       .  S
C686        C687   1.402       .  A
C687        C688   1.398       .  A
C687        H692   1.083       .  S
C688        C689   1.405       .  A
C688        H693   1.083       .  S
C689        C690   1.405       .  A
C690        H694   1.083       .  S
C695        C696   1.402       .  A
C695        C700   1.398       .  A
C695        H701   1.083       .  S
C696        C697   1.401       .  A
C697        C698   1.398       .  A
C697        H702   1.083       .  S
C698        C699   1.405       .  A
C698        H703   1.083       .  S
C699        C700   1.405       .  A
C700        H704   1.083       .  S
C705        C706   1.206       .  T
C706       C1157   1.465       .  S
C707        C708   1.206       .  T
C708       C1157   1.465       .  S
C709        C710   1.206       .  T
C711        C712   1.206       .  T
C712       C1157   1.465       .  S
C713        C714   1.206       .  T
C715        C716   1.206       .  T
C717        C718   1.206       .  T
C719        C720   1.206       .  T
C721        C722   1.402       .  A
C721        C726   1.398       .  A
C721        H727   1.083       .  S
C722        C723   1.402       .  A
C723        C724   1.398       .  A
C723        H728   1.083       .  S
C724        C725   1.405       .  A
C724        H729   1.083       .  S
C725        C726   1.405       .  A
C726        H730   1.083       .  S
C731        C732   1.405       .  A
C731        C736   1.398       .  A
C731        H737   1.083       .  S
C732        C733   1.405       .  A
C733        C734   1.398       .  A
C733        H738   1.083       .  S
C734        C735   1.402       .  A
C734        H739   1.083       .  S
C735        C736   1.401       .  A
C736        H740   1.083       .  S
C741        C742   1.402       .  A
C741        C746   1.398       .  A
C741        H747   1.083       .  S
C742        C743   1.401       .  A
C743        C744   1.398       .  A
C743        H748   1.083       .  S
C744        C745   1.405       .  A
C744        H749   1.083       .  S
C745        C746   1.405       .  A
C746        H750   1.083       .  S
C751        C752   1.405       .  A
C751        C756   1.398       .  A
C751        H757   1.083       .  S
C752        C753   1.405       .  A
C753        C754   1.398       .  A
C753        H758   1.083       .  S
C754        C755   1.402       .  A
C754        H759   1.083       .  S
C755        C756   1.402       .  A
C756        H760   1.083       .  S
C761        C762   1.206       .  T
C763        C764   1.206       .  T
C765        C766   1.206       .  T
C767        C768   1.206       .  T
C769       C1530   1.465       .  S
C769       C1531   1.465       .  S
C769       C1533   1.465       .  S
C769       C1151   1.465       .  S
C770       C1119   1.481       .  S
C770       C1139   1.482   1_554  S
C771       C1106   1.482       .  S
C771       C1126   1.481   1_554  S
C772       C1481   1.465       .  S
C772       C1483   1.465       .  S
C772       C1485   1.465       .  S
C772       C1104   1.466       .  S
C773       C1094   1.465       .  S
C774       C1060   1.479       .  S
C774       C1080   1.480   1_554  S
C774       C1159   1.360       .  D
C775       C1050   1.480       .  S
C775       C1070   1.481   1_554  S
C775       C1158   1.360   1_545  D
N776        N777   1.320       .  A
N776        N782   1.314       .  A
N776       Mn805   2.198       .  S
N777        C784   1.353       .  A
N778        N780   1.317       .  A
N778        N779   1.321       .  A
N778       Mn794   2.206       .  S
N779        C785   1.351       .  A
N780        N781   1.320       .  A
N780       Mn805   2.202       .  S
N781        C785   1.350       .  A
N782        N783   1.320       .  A
N782       Mn794   2.199       .  S
N783        C784   1.353       .  A
C784       C1083   1.476       .  S
C785       C1103   1.435       .  S
N786        N792   1.317       .  A
N786        N787   1.321       .  A
N786       Mn816   2.205       .  S
N787        C795   1.351       .  A
N788        N789   1.320       .  A
N788        N790   1.315       .  A
N788       Mn794   2.198       .  S
N789        C796   1.353       .  A
N790        N791   1.321       .  A
N790       Mn816   2.200       .  S
N791        C796   1.353       .  A
N792        N793   1.320       .  A
N792       Mn794   2.201       .  S
N793        C795   1.350       .  A
Mn794      Cl818   2.546       .  S
C795       C1095   1.434       .  S
C796       C1136   1.476       .  S
N797        N798   1.321       .  A
N797        N803   1.317       .  A
N797       Mn805   2.206       .  S
N798        C806   1.351       .  A
N799        N801   1.315       .  A
N799        N800   1.320       .  A
N799       Mn817   2.196       .  S
N800        C807   1.353       .  A
N801        N802   1.320       .  A
N801       Mn805   2.200       .  S
N802        C807   1.353       .  A
N803        N804   1.320       .  A
N803       Mn817   2.202       .  S
N804        C806   1.350       .  A
Mn805      Cl818   2.545       .  S
C806       C1093   1.434       .  S
C807       C1129   1.475       .  S
N808        N809   1.320       .  A
N808        N814   1.315       .  A
N808       Mn816   2.197       .  S
N809        C819   1.353       .  A
N810        N811   1.321       .  A
N810        N812   1.317       .  A
N810       Mn817   2.205       .  S
N811        C820   1.351       .  A
N812        N813   1.320       .  A
N812       Mn816   2.202       .  S
N813        C820   1.350       .  A
N814        N815   1.321       .  A
N814       Mn817   2.200       .  S
N815        C819   1.353       .  A
Mn816      Cl818   2.545       .  S
Mn817      Cl818   2.546       .  S
C819       C1073   1.476       .  S
C820       C1102   1.434       .  S
N821        N822   1.321       .  A
N821        N827   1.317       .  A
N821       Mn850   2.204       .  S
N822        C829   1.351       .  A
N823        N825   1.314       .  A
N823        N824   1.320       .  A
N823       Mn839   2.197       .  S
N824        C830   1.353       .  A
N825        N826   1.320       .  A
N825       Mn850   2.200       .  S
N826        C830   1.354       .  A
N827        N828   1.320       .  A
N827       Mn839   2.202       .  S
N828        C829   1.350       .  A
C829       C1152   1.434       .  S
C830       C1063   1.477       .  S
N831        N837   1.315       .  A
N831        N832   1.320       .  A
N831       Mn861   2.197       .  S
N832        C840   1.353       .  A
N833        N834   1.321       .  A
N833        N835   1.317       .  A
N833       Mn839   2.204       .  S
N834        C841   1.351       .  A
N835        N836   1.320       .  A
N835       Mn861   2.202       .  S
N836        C841   1.350       .  A
N837        N838   1.320       .  A
N837       Mn839   2.200       .  S
N838        C840   1.353       .  A
Mn839      Cl863   2.544       .  S
C840       C1116   1.475       .  S
C841       C1048   1.434       .  S
N842        N843   1.320       .  A
N842        N848   1.315       .  A
N842       Mn850   2.199       .  S
N843        C851   1.353       .  A
N844        N846   1.317       .  A
N844        N845   1.321       .  A
N844       Mn862   2.205       .  S
N845        C852   1.351       .  A
N846        N847   1.320       .  A
N846       Mn850   2.201       .  S
N847        C852   1.350       .  A
N848        N849   1.321       .  A
N848       Mn862   2.201       .  S
N849        C851   1.353       .  A
Mn850      Cl863   2.547       .  S
C851       C1109   1.476       .  S
C852       C1045   1.434       .  S
N853        N854   1.320       .  A
N853        N859   1.317       .  A
N853       Mn861   2.204       .  S
N854        C864   1.350       .  A
N855        N856   1.320       .  A
N855        N857   1.315       .  A
N855       Mn862   2.197       .  S
N856        C865   1.353       .  A
N857        N858   1.321       .  A
N857       Mn861   2.200       .  S
N858        C865   1.354       .  A
N859        N860   1.320       .  A
N859       Mn862   2.202       .  S
N860        C864   1.350       .  A
Mn861      Cl863   2.546       .  S
Mn862      Cl863   2.545       .  S
C864       C1150   1.434       .  S
C865       C1053   1.477       .  S
N866        N867   1.321       .  A
N866       N1256   1.317   1_545  A
N866       Mn895   2.206       .  S
N867        C874   1.351       .  A
N868       N1254   1.315       .  A
N868        N869   1.320       .  A
N868       Mn884   2.199       .  S
N869       C1259   1.353       .  A
N870       N1252   1.315   1_545  A
N870        N871   1.321       .  A
N870       Mn895   2.200       .  S
N871        C875   1.353       .  A
N872       N1250   1.317       .  A
N872        N873   1.320       .  A
N872       Mn884   2.201       .  S
N873       C1258   1.350       .  A
C874       N1257   1.350   1_545  A
C874       C1100   1.434       .  S
C875       N1253   1.353   1_545  A
C875       C1006   1.476       .  S
N876        N877   1.320       .  A
N876       Mn906   2.198       .  S
N877        C885   1.353       .  A
N878        N879   1.321       .  A
N878       Mn884   2.206       .  S
N880        N881   1.320       .  A
N880       Mn906   2.201       .  S
N881        C886   1.350       .  A
N882        N883   1.320       .  A
N882       Mn884   2.200       .  S
C885       C1036   1.476       .  S
C886       C1091   1.434       .  S
N887        N888   1.320       .  A
N887       Mn895   2.197       .  S
N889        N890   1.321       .  A
N889       Mn907   2.205       .  S
N890        C897   1.351       .  A
N891        N892   1.320       .  A
N891       Mn895   2.202       .  S
N893        N894   1.321       .  A
N893       Mn907   2.200       .  S
N894        C896   1.353       .  A
C896       C1026   1.476       .  S
C897       C1089   1.434       .  S
N898        N899   1.321       .  A
N898       N1288   1.317       .  A
N898       Mn906   2.205       .  S
N899       C1293   1.351       .  A
N900        N901   1.320       .  A
N900       N1286   1.315   1_545  A
N900       Mn907   2.198       .  S
N901        C910   1.353       .  A
N902       N1284   1.315       .  A
N902        N903   1.320       .  A
N902       Mn906   2.199       .  S
N903       C1294   1.353       .  A
N904       N1282   1.317   1_545  A
N904        N905   1.320       .  A
N904       Mn907   2.202       .  S
N905        C909   1.350       .  A
Mn906     Cl1292   2.546       .  S
Mn907      Cl908   2.546       .  S
Cl908     Mn1290   2.546   1_545  S
C909       N1283   1.351   1_545  A
C909       C1098   1.435       .  S
C910       N1287   1.353   1_545  A
C910       C1016   1.476       .  S
N911        N912   1.321       .  A
N911       Mn940   2.204       .  S
N912        C919   1.351       .  A
N913        N914   1.320       .  A
N913       Mn929   2.198       .  S
N915        N916   1.320       .  A
N915       Mn940   2.199       .  S
N916        C920   1.353       .  A
N917        N918   1.320       .  A
N917       Mn929   2.202       .  S
C919        C962   1.434       .  S
C920        C976   1.476   1_655  S
N921       N1311   1.314   1_545  A
N921        N922   1.320       .  A
N921       Mn951   2.197       .  S
N922        C930   1.353       .  A
N923        N924   1.320       .  A
N923       N1309   1.317       .  A
N923       Mn929   2.203       .  S
N924       C1315   1.350       .  A
N925       N1307   1.317   1_545  A
N925        N926   1.320       .  A
N925       Mn951   2.203       .  S
N926        C931   1.351       .  A
N927       N1305   1.314       .  A
N927        N928   1.320       .  A
N927       Mn929   2.200       .  S
N928       C1314   1.353       .  A
C930       N1312   1.354   1_545  A
C930        C986   1.477       .  S
C931       N1308   1.350   1_545  A
C931       C1148   1.434       .  S
N932        N933   1.320       .  A
N932       N1322   1.315       .  A
N932       Mn940   2.198       .  S
N933       C1325   1.353       .  A
N934       N1320   1.317   1_545  A
N934        N935   1.321       .  A
N934       Mn952   2.204       .  S
N935        C942   1.351       .  A
N936       N1318   1.317       .  A
N936        N937   1.320       .  A
N936       Mn940   2.202       .  S
N937       C1326   1.350       .  A
N938       N1316   1.315   1_545  A
N938        N939   1.321       .  A
N938       Mn952   2.201       .  S
N939        C941   1.354       .  A
Mn940     Cl1337   2.545       .  S
C941       N1317   1.353   1_545  A
C941        C996   1.478       .  S
C942       N1321   1.350   1_545  A
C942       C1145   1.434       .  S
N943        N944   1.321       .  A
N943       Mn951   2.204       .  S
N945        N946   1.320       .  A
N945       Mn952   2.198       .  S
N946        C955   1.353       .  A
N947        N948   1.320       .  A
N947       Mn951   2.200       .  S
N949        N950   1.320       .  A
N949       Mn952   2.202       .  S
N950        C954   1.350       .  A
Mn952      Cl953   2.547       .  S
Cl953     Mn1324   2.545   1_545  S
C954        C963   1.434       .  S
C955        C966   1.476       .  S
C956        C979   1.481       .  S
C956       C1039   1.481       .  S
C956        C957   1.360       .  D
C957        C969   1.481       .  S
C957       C1029   1.481       .  S
C958        C999   1.480       .  S
C958       C1019   1.481       .  S
C958        C959   1.360       .  D
C959        C989   1.480       .  S
C959       C1009   1.483       .  S
C960       C1046   1.465       .  S
C961        C962   1.206       .  T
C963        C964   1.206       .  T
C965        C970   1.398       .  A
C965        H971   1.083       .  S
C966        C967   1.405       .  A
C967        C968   1.398       .  A
C967        H972   1.083       .  S
C968        H973   1.083       .  S
C969        C970   1.401       .  A
C970        H974   1.083       .  S
C975        C980   1.398       .  A
C975        H981   1.083       .  S
C976        C977   1.405   1_455  A
C977        C978   1.398       .  A
C977        H982   1.083       .  S
C978        H983   1.083       .  S
C979        C980   1.402       .  A
C980        H984   1.083       .  S
C985       C1370   1.405       .  A
C985        C990   1.398       .  A
C985        H991   1.083       .  S
C986       C1369   1.405   1_545  A
C986        C987   1.406       .  A
C987        C988   1.398       .  A
C987        H992   1.083       .  S
C988       C1373   1.401       .  A
C988        H993   1.083       .  S
C989       C1372   1.401       .  A
C989        C990   1.401       .  A
C990        H994   1.083       .  S
C995       C1380   1.406       .  A
C995       C1000   1.399       .  A
C995       H1001   1.083       .  S
C996       C1379   1.406   1_545  A
C996        C997   1.406       .  A
C997        C998   1.398       .  A
C997       H1002   1.083       .  S
C998       C1383   1.401   1_545  A
C998       H1003   1.083       .  S
C999       C1382   1.401       .  A
C999       C1000   1.401       .  A
C1000      H1004   1.083       .  S
C1005      C1006   1.405   1_565  A
C1005      C1010   1.398       .  A
C1005      H1011   1.083       .  S
C1006      C1007   1.405       .  A
C1007      C1392   1.398       .  A
C1007      H1396   1.083       .  S
C1008      C1391   1.398       .  A
C1008      C1009   1.402       .  A
C1008      H1013   1.083       .  S
C1009      C1394   1.403       .  A
C1010      C1393   1.403   1_565  A
C1010      H1014   1.083       .  S
H1012      C1391   1.083       .  S
C1015      C1016   1.405       .  A
C1015      C1020   1.398       .  A
C1015      H1021   1.083       .  S
C1016      C1401   1.405   1_545  A
C1017      C1400   1.405       .  A
C1017      C1018   1.398       .  A
C1017      H1022   1.083       .  S
C1018      C1019   1.401       .  A
C1018      H1023   1.083       .  S
C1019      C1404   1.402       .  A
C1020      C1403   1.402       .  A
C1020      H1024   1.083       .  S
C1025      C1026   1.405       .  A
C1025      C1030   1.398       .  A
C1025      H1031   1.083       .  S
C1027      C1028   1.398       .  A
C1027      H1032   1.083       .  S
C1028      C1029   1.402       .  A
C1028      H1033   1.083       .  S
C1030      H1034   1.083       .  S
C1035      C1036   1.405       .  A
C1035      C1040   1.398       .  A
C1035      H1041   1.083       .  S
C1037      C1038   1.398       .  A
C1037      H1042   1.083       .  S
C1038      C1039   1.401       .  A
C1038      H1043   1.083       .  S
C1040      H1044   1.083       .  S
C1045      C1046   1.206       .  T
C1047      C1048   1.206       .  T
C1049      C1050   1.401       .  A
C1049      C1054   1.398       .  A
C1049      H1055   1.083       .  S
C1050      C1051   1.401       .  A
C1051      C1052   1.398       .  A
C1051      H1056   1.083       .  S
C1052      C1053   1.406       .  A
C1052      H1057   1.083       .  S
C1053      C1054   1.405       .  A
C1054      H1058   1.083       .  S
C1059      C1060   1.401       .  A
C1059      C1064   1.398       .  A
C1059      H1065   1.083       .  S
C1060      C1061   1.401       .  A
C1061      C1062   1.398       .  A
C1061      H1066   1.083       .  S
C1062      C1063   1.405       .  A
C1062      H1067   1.083       .  S
C1063      C1064   1.406       .  A
C1064      H1068   1.083       .  S
C1069      C1070   1.402       .  A
C1069      C1074   1.398       .  A
C1069      H1075   1.083       .  S
C1070      C1071   1.402       .  A
C1071      C1072   1.398       .  A
C1071      H1076   1.083       .  S
C1072      C1073   1.405       .  A
C1072      H1077   1.083       .  S
C1073      C1074   1.405       .  A
C1074      H1078   1.083       .  S
C1079      C1080   1.402       .  A
C1079      C1084   1.398       .  A
C1079      H1085   1.083       .  S
C1080      C1081   1.401       .  A
C1081      C1082   1.398       .  A
C1081      H1086   1.083       .  S
C1082      C1083   1.405       .  A
C1082      H1087   1.083       .  S
C1083      C1084   1.405       .  A
C1084      H1088   1.083       .  S
C1089      C1090   1.206       .  T
C1091      C1092   1.206       .  T
C1093      C1094   1.206       .  T
C1095      C1096   1.206       .  T
C1097      C1156   1.465       .  S
C1097      C1098   1.206       .  T
C1099      C1156   1.465       .  S
C1099      C1100   1.206       .  T
C1101      C1156   1.465       .  S
C1101      C1102   1.206       .  T
C1103      C1104   1.206       .  T
C1105      C1106   1.402       .  A
C1105      C1110   1.398       .  A
C1105      H1111   1.083       .  S
C1106      C1107   1.402       .  A
C1107      C1108   1.398       .  A
C1107      H1112   1.083       .  S
C1108      C1109   1.405       .  A
C1108      H1113   1.083       .  S
C1109      C1110   1.405       .  A
C1110      H1114   1.083       .  S
C1115      C1116   1.405       .  A
C1115      C1120   1.398       .  A
C1115      H1121   1.083       .  S
C1116      C1117   1.405       .  A
C1117      C1118   1.398       .  A
C1117      H1122   1.083       .  S
C1118      C1119   1.402       .  A
C1118      H1123   1.083       .  S
C1119      C1120   1.401       .  A
C1120      H1124   1.083       .  S
C1125      C1126   1.402       .  A
C1125      C1130   1.398       .  A
C1125      H1131   1.083       .  S
C1126      C1127   1.401       .  A
C1127      C1128   1.398       .  A
C1127      H1132   1.083       .  S
C1128      C1129   1.405       .  A
C1128      H1133   1.083       .  S
C1129      C1130   1.405       .  A
C1130      H1134   1.083       .  S
C1135      C1136   1.405       .  A
C1135      C1140   1.398       .  A
C1135      H1141   1.083       .  S
C1136      C1137   1.405       .  A
C1137      C1138   1.398       .  A
C1137      H1142   1.083       .  S
C1138      C1139   1.402       .  A
C1138      H1143   1.083       .  S
C1139      C1140   1.402       .  A
C1140      H1144   1.083       .  S
C1145      C1146   1.206       .  T
C1146      C1153   1.465       .  S
C1147      C1153   1.465       .  S
C1147      C1148   1.206       .  T
C1149      C1153   1.465       .  S
C1149      C1150   1.206       .  T
C1151      C1152   1.206       .  T
C1153      C1535   1.465   1_545  S
C1154      C1503   1.481       .  S
C1154      C1523   1.482   1_554  S
C1155      C1490   1.482       .  S
C1155      C1510   1.481   1_554  S
C1156      C1488   1.466   1_545  S
C1157      C1478   1.465       .  S
C1158      C1444   1.479       .  S
C1158      C1464   1.480   1_554  S
C1159      C1434   1.480       .  S
C1159      C1454   1.481   1_554  S
N1160      N1161   1.320       .  A
N1160      N1166   1.314       .  A
N1160     Mn1189   2.198       .  S
N1161      C1168   1.353       .  A
N1162      N1164   1.317       .  A
N1162      N1163   1.321       .  A
N1162     Mn1178   2.206       .  S
N1163      C1169   1.351       .  A
N1164      N1165   1.320       .  A
N1164     Mn1189   2.202       .  S
N1165      C1169   1.350       .  A
N1166      N1167   1.320       .  A
N1166     Mn1178   2.199       .  S
N1167      C1168   1.353       .  A
C1168      C1467   1.476       .  S
C1169      C1487   1.435       .  S
N1170      N1176   1.317       .  A
N1170      N1171   1.321       .  A
N1170     Mn1200   2.205       .  S
N1171      C1179   1.351       .  A
N1172      N1173   1.320       .  A
N1172      N1174   1.315       .  A
N1172     Mn1178   2.198       .  S
N1173      C1180   1.353       .  A
N1174      N1175   1.321       .  A
N1174     Mn1200   2.200       .  S
N1175      C1180   1.353       .  A
N1176      N1177   1.320       .  A
N1176     Mn1178   2.201       .  S
N1177      C1179   1.350       .  A
Mn1178    Cl1202   2.546       .  S
C1179      C1479   1.434       .  S
C1180      C1520   1.476       .  S
N1181      N1182   1.321       .  A
N1181      N1187   1.317       .  A
N1181     Mn1189   2.206       .  S
N1182      C1190   1.351       .  A
N1183      N1185   1.315       .  A
N1183      N1184   1.320       .  A
N1183     Mn1201   2.196       .  S
N1184      C1191   1.353       .  A
N1185      N1186   1.320       .  A
N1185     Mn1189   2.200       .  S
N1186      C1191   1.353       .  A
N1187      N1188   1.320       .  A
N1187     Mn1201   2.202       .  S
N1188      C1190   1.350       .  A
Mn1189    Cl1202   2.545       .  S
C1190      C1477   1.434       .  S
C1191      C1513   1.475       .  S
N1192      N1193   1.320       .  A
N1192      N1198   1.315       .  A
N1192     Mn1200   2.197       .  S
N1193      C1203   1.353       .  A
N1194      N1195   1.321       .  A
N1194      N1196   1.317       .  A
N1194     Mn1201   2.205       .  S
N1195      C1204   1.351       .  A
N1196      N1197   1.320       .  A
N1196     Mn1200   2.202       .  S
N1197      C1204   1.350       .  A
N1198      N1199   1.321       .  A
N1198     Mn1201   2.200       .  S
N1199      C1203   1.353       .  A
Mn1200    Cl1202   2.545       .  S
Mn1201    Cl1202   2.546       .  S
C1203      C1457   1.476       .  S
C1204      C1486   1.434       .  S
N1205      N1206   1.321       .  A
N1205      N1211   1.317       .  A
N1205     Mn1234   2.204       .  S
N1206      C1213   1.351       .  A
N1207      N1209   1.314       .  A
N1207      N1208   1.320       .  A
N1207     Mn1223   2.197       .  S
N1208      C1214   1.353       .  A
N1209      N1210   1.320       .  A
N1209     Mn1234   2.200       .  S
N1210      C1214   1.354       .  A
N1211      N1212   1.320       .  A
N1211     Mn1223   2.202       .  S
N1212      C1213   1.350       .  A
C1213      C1536   1.434       .  S
C1214      C1447   1.477       .  S
N1215      N1221   1.315       .  A
N1215      N1216   1.320       .  A
N1215     Mn1245   2.197       .  S
N1216      C1224   1.353       .  A
N1217      N1218   1.321       .  A
N1217      N1219   1.317       .  A
N1217     Mn1223   2.204       .  S
N1218      C1225   1.351       .  A
N1219      N1220   1.320       .  A
N1219     Mn1245   2.202       .  S
N1220      C1225   1.350       .  A
N1221      N1222   1.320       .  A
N1221     Mn1223   2.200       .  S
N1222      C1224   1.353       .  A
Mn1223    Cl1247   2.544       .  S
C1224      C1500   1.475       .  S
C1225      C1432   1.434       .  S
N1226      N1227   1.320       .  A
N1226      N1232   1.315       .  A
N1226     Mn1234   2.199       .  S
N1227      C1235   1.353       .  A
N1228      N1230   1.317       .  A
N1228      N1229   1.321       .  A
N1228     Mn1246   2.205       .  S
N1229      C1236   1.351       .  A
N1230      N1231   1.320       .  A
N1230     Mn1234   2.201       .  S
N1231      C1236   1.350       .  A
N1232      N1233   1.321       .  A
N1232     Mn1246   2.201       .  S
N1233      C1235   1.353       .  A
Mn1234    Cl1247   2.547       .  S
C1235      C1493   1.476       .  S
C1236      C1429   1.434       .  S
N1237      N1238   1.320       .  A
N1237      N1243   1.317       .  A
N1237     Mn1245   2.204       .  S
N1238      C1248   1.350       .  A
N1239      N1240   1.320       .  A
N1239      N1241   1.315       .  A
N1239     Mn1246   2.197       .  S
N1240      C1249   1.353       .  A
N1241      N1242   1.321       .  A
N1241     Mn1245   2.200       .  S
N1242      C1249   1.354       .  A
N1243      N1244   1.320       .  A
N1243     Mn1246   2.202       .  S
N1244      C1248   1.350       .  A
Mn1245    Cl1247   2.546       .  S
Mn1246    Cl1247   2.545       .  S
C1248      C1534   1.434       .  S
C1249      C1437   1.477       .  S
N1250      N1251   1.321       .  A
N1250     Mn1279   2.206       .  S
N1251      C1258   1.351       .  A
N1252      N1253   1.320       .  A
N1252     Mn1268   2.199       .  S
N1254      N1255   1.321       .  A
N1254     Mn1279   2.200       .  S
N1255      C1259   1.353       .  A
N1256      N1257   1.320       .  A
N1256     Mn1268   2.201       .  S
C1258      C1484   1.434       .  S
C1259      C1390   1.476       .  S
N1260      N1261   1.320       .  A
N1260     Mn1290   2.198       .  S
N1261      C1269   1.353       .  A
N1262      N1263   1.321       .  A
N1262     Mn1268   2.206       .  S
N1264      N1265   1.320       .  A
N1264     Mn1290   2.201       .  S
N1265      C1270   1.350       .  A
N1266      N1267   1.320       .  A
N1266     Mn1268   2.200       .  S
C1269      C1420   1.476       .  S
C1270      C1475   1.434       .  S
N1271      N1272   1.320       .  A
N1271     Mn1279   2.197       .  S
N1273      N1274   1.321       .  A
N1273     Mn1291   2.205       .  S
N1274      C1281   1.351       .  A
N1275      N1276   1.320       .  A
N1275     Mn1279   2.202       .  S
N1277      N1278   1.321       .  A
N1277     Mn1291   2.200       .  S
N1278      C1280   1.353       .  A
C1280      C1410   1.476       .  S
C1281      C1473   1.434       .  S
N1282      N1283   1.321       .  A
N1282     Mn1290   2.205       .  S
N1284      N1285   1.320       .  A
N1284     Mn1291   2.198       .  S
N1285      C1294   1.353       .  A
N1286      N1287   1.320       .  A
N1286     Mn1290   2.199       .  S
N1288      N1289   1.320       .  A
N1288     Mn1291   2.202       .  S
N1289      C1293   1.350       .  A
Mn1291    Cl1292   2.546       .  S
C1293      C1482   1.435       .  S
C1294      C1400   1.476       .  S
N1295      N1296   1.321       .  A
N1295     Mn1324   2.204       .  S
N1296      C1303   1.351       .  A
N1297      N1298   1.320       .  A
N1297     Mn1313   2.198       .  S
N1299      N1300   1.320       .  A
N1299     Mn1324   2.199       .  S
N1300      C1304   1.353       .  A
N1301      N1302   1.320       .  A
N1301     Mn1313   2.202       .  S
C1303      C1346   1.434       .  S
C1304      C1360   1.476   1_655  S
N1305      N1306   1.320       .  A
N1305     Mn1335   2.197       .  S
N1306      C1314   1.353       .  A
N1307      N1308   1.320       .  A
N1307     Mn1313   2.203       .  S
N1309      N1310   1.320       .  A
N1309     Mn1335   2.203       .  S
N1310      C1315   1.351       .  A
N1311      N1312   1.320       .  A
N1311     Mn1313   2.200       .  S
C1314      C1370   1.477       .  S
C1315      C1532   1.434       .  S
N1316      N1317   1.320       .  A
N1316     Mn1324   2.198       .  S
N1318      N1319   1.321       .  A
N1318     Mn1336   2.204       .  S
N1319      C1326   1.351       .  A
N1320      N1321   1.320       .  A
N1320     Mn1324   2.202       .  S
N1322      N1323   1.321       .  A
N1322     Mn1336   2.201       .  S
N1323      C1325   1.354       .  A
C1325      C1380   1.478       .  S
C1326      C1529   1.434       .  S
N1327      N1328   1.321       .  A
N1327     Mn1335   2.204       .  S
N1329      N1330   1.320       .  A
N1329     Mn1336   2.198       .  S
N1330      C1339   1.353       .  A
N1331      N1332   1.320       .  A
N1331     Mn1335   2.200       .  S
N1333      N1334   1.320       .  A
N1333     Mn1336   2.202       .  S
N1334      C1338   1.350       .  A
Mn1336    Cl1337   2.547       .  S
C1338      C1347   1.434       .  S
C1339      C1350   1.476       .  S
C1340      C1363   1.481       .  S
C1340      C1423   1.481       .  S
C1340      C1341   1.360       .  D
C1341      C1353   1.481       .  S
C1341      C1413   1.481       .  S
C1342      C1383   1.480       .  S
C1342      C1403   1.481   1_565  S
C1342      C1343   1.360   1_565  D
C1343      C1373   1.480       .  S
C1343      C1393   1.483       .  S
C1344      C1430   1.465       .  S
C1345      C1346   1.206       .  T
C1347      C1348   1.206       .  T
C1349      C1354   1.398       .  A
C1349      H1355   1.083       .  S
C1350      C1351   1.405       .  A
C1351      C1352   1.398       .  A
C1351      H1356   1.083       .  S
C1352      H1357   1.083       .  S
C1353      C1354   1.401       .  A
C1354      H1358   1.083       .  S
C1359      C1364   1.398       .  A
C1359      H1365   1.083       .  S
C1360      C1361   1.405   1_455  A
C1361      C1362   1.398       .  A
C1361      H1366   1.083       .  S
C1362      H1367   1.083       .  S
C1363      C1364   1.402       .  A
C1364      H1368   1.083       .  S
C1369      C1374   1.398       .  A
C1369      H1375   1.083       .  S
C1370      C1371   1.406       .  A
C1371      C1372   1.398       .  A
C1371      H1376   1.083       .  S
C1372      H1377   1.083       .  S
C1373      C1374   1.401   1_545  A
C1374      H1378   1.083       .  S
C1379      C1384   1.399       .  A
C1379      H1385   1.083       .  S
C1380      C1381   1.406       .  A
C1381      C1382   1.398       .  A
C1381      H1386   1.083       .  S
C1382      H1387   1.083       .  S
C1383      C1384   1.401       .  A
C1384      H1388   1.083       .  S
C1389      C1390   1.405       .  A
C1389      C1394   1.398       .  A
C1389      H1395   1.083       .  S
C1390      C1391   1.405       .  A
C1392      C1393   1.402       .  A
C1392      H1397   1.083       .  S
C1394      H1398   1.083       .  S
C1399      C1400   1.405       .  A
C1399      C1404   1.398       .  A
C1399      H1405   1.083       .  S
C1401      C1402   1.398       .  A
C1401      H1406   1.083       .  S
C1402      C1403   1.401   1_565  A
C1402      H1407   1.083       .  S
C1404      H1408   1.083       .  S
C1409      C1410   1.405       .  A
C1409      C1414   1.398       .  A
C1409      H1415   1.083       .  S
C1411      C1412   1.398       .  A
C1411      H1416   1.083       .  S
C1412      C1413   1.402       .  A
C1412      H1417   1.083       .  S
C1414      H1418   1.083       .  S
C1419      C1420   1.405       .  A
C1419      C1424   1.398       .  A
C1419      H1425   1.083       .  S
C1421      C1422   1.398       .  A
C1421      H1426   1.083       .  S
C1422      C1423   1.401       .  A
C1422      H1427   1.083       .  S
C1424      H1428   1.083       .  S
C1429      C1430   1.206       .  T
C1431      C1432   1.206       .  T
C1433      C1434   1.401       .  A
C1433      C1438   1.398       .  A
C1433      H1439   1.083       .  S
C1434      C1435   1.401       .  A
C1435      C1436   1.398       .  A
C1435      H1440   1.083       .  S
C1436      C1437   1.406       .  A
C1436      H1441   1.083       .  S
C1437      C1438   1.405       .  A
C1438      H1442   1.083       .  S
C1443      C1444   1.401       .  A
C1443      C1448   1.398       .  A
C1443      H1449   1.083       .  S
C1444      C1445   1.401       .  A
C1445      C1446   1.398       .  A
C1445      H1450   1.083       .  S
C1446      C1447   1.405       .  A
C1446      H1451   1.083       .  S
C1447      C1448   1.406       .  A
C1448      H1452   1.083       .  S
C1453      C1454   1.402       .  A
C1453      C1458   1.398       .  A
C1453      H1459   1.083       .  S
C1454      C1455   1.402       .  A
C1455      C1456   1.398       .  A
C1455      H1460   1.083       .  S
C1456      C1457   1.405       .  A
C1456      H1461   1.083       .  S
C1457      C1458   1.405       .  A
C1458      H1462   1.083       .  S
C1463      C1464   1.402       .  A
C1463      C1468   1.398       .  A
C1463      H1469   1.083       .  S
C1464      C1465   1.401       .  A
C1465      C1466   1.398       .  A
C1465      H1470   1.083       .  S
C1466      C1467   1.405       .  A
C1466      H1471   1.083       .  S
C1467      C1468   1.405       .  A
C1468      H1472   1.083       .  S
C1473      C1474   1.206       .  T
C1475      C1476   1.206       .  T
C1477      C1478   1.206       .  T
C1479      C1480   1.206       .  T
C1481      C1482   1.206       .  T
C1483      C1484   1.206       .  T
C1485      C1486   1.206       .  T
C1487      C1488   1.206       .  T
C1489      C1490   1.402       .  A
C1489      C1494   1.398       .  A
C1489      H1495   1.083       .  S
C1490      C1491   1.402       .  A
C1491      C1492   1.398       .  A
C1491      H1496   1.083       .  S
C1492      C1493   1.405       .  A
C1492      H1497   1.083       .  S
C1493      C1494   1.405       .  A
C1494      H1498   1.083       .  S
C1499      C1500   1.405       .  A
C1499      C1504   1.398       .  A
C1499      H1505   1.083       .  S
C1500      C1501   1.405       .  A
C1501      C1502   1.398       .  A
C1501      H1506   1.083       .  S
C1502      C1503   1.402       .  A
C1502      H1507   1.083       .  S
C1503      C1504   1.401       .  A
C1504      H1508   1.083       .  S
C1509      C1510   1.402       .  A
C1509      C1514   1.398       .  A
C1509      H1515   1.083       .  S
C1510      C1511   1.401       .  A
C1511      C1512   1.398       .  A
C1511      H1516   1.083       .  S
C1512      C1513   1.405       .  A
C1512      H1517   1.083       .  S
C1513      C1514   1.405       .  A
C1514      H1518   1.083       .  S
C1519      C1520   1.405       .  A
C1519      C1524   1.398       .  A
C1519      H1525   1.083       .  S
C1520      C1521   1.405       .  A
C1521      C1522   1.398       .  A
C1521      H1526   1.083       .  S
C1522      C1523   1.402       .  A
C1522      H1527   1.083       .  S
C1523      C1524   1.402       .  A
C1524      H1528   1.083       .  S
C1529      C1530   1.206       .  T
C1531      C1532   1.206       .  T
C1533      C1534   1.206       .  T
C1535      C1536   1.206       .  T
