geometry optimzed in LAMMPS
_audit_creation_date              2020-12-01 
_audit_creation_method            'lammps2cif' 
_symmetry_space_group_name_H-M    'P1' 
_symmetry_Int_Tables_number       1 
_symmetry_cell_setting            triclinic 
loop_ 
_symmetry_equiv_pos_as_xyz 
  x,y,z 
_cell_length_a                    43.43762507 
_cell_length_b                    37.14983411680645 
_cell_length_c                    33.07051928524621 
_cell_angle_alpha                 89.9177678425793 
_cell_angle_beta                  90.3777527998308 
_cell_angle_gamma                 90.64130410114065 
loop_ 
_atom_site_label 
_atom_site_type_symbol 
_atom_site_fract_x 
_atom_site_fract_y 
_atom_site_fract_z 
_atom_site_charge 
O1          O  0.24611486  0.80487368  0.21871895    -0.72200
O2          O  0.24700853  0.75128033  0.31607814    -0.72400
O3          O  0.29030663  0.77857126  0.26659385    -0.72300
O4          O  0.20270234  0.77731928  0.26770214    -0.72300
O5          O  0.20258619  0.72791711  0.23286116    -0.72300
O6          O  0.28961035  0.72822689  0.23322791    -0.72300
O7          O  0.24605279  0.70158943  0.28180625    -0.72200
O8          O  0.24616028  0.75520276  0.18424378    -0.72400
V9          V  0.24650494  0.77706364  0.26664556     1.35200
V10         V  0.24610113  0.72924545  0.23365550     1.35200
C11         C  0.24636241  0.78925253  0.18486669     0.77000
C12         C  0.24653765  0.71730178  0.31570539     0.77100
C13         C  0.30481988  0.75341296  0.24973644     0.77000
C14         C  0.18769838  0.75211065  0.25062719     0.76900
O15         O  0.49311960  0.75218625  0.31847262    -0.72200
O16         O  0.99537720  0.69944495  0.22203904    -0.72400
O17         O  0.03979974  0.72655271  0.26999702    -0.72300
O18         O  0.45208300  0.72396356  0.26655213    -0.72300
O19         O  0.45305207  0.77355658  0.23178815    -0.72300
O20         O  0.03980559  0.77573700  0.23436415    -0.72300
O21         O  0.49942129  0.74762631  0.18704777    -0.72200
O22         O  0.99827816  0.80317014  0.28424586    -0.72400
V23         V  0.99610117  0.72749278  0.26971855     1.35200
V24         V  0.99621739  0.77519453  0.23632898     1.35200
C25         C  0.99895903  0.78752900  0.31822272     0.77000
C26         C  0.99426049  0.71486228  0.18803615     0.77100
C27         C  0.05466554  0.75135059  0.25228750     0.77000
C28         C  0.43764612  0.74866673  0.24848929     0.76900
O29         O  0.19420558  0.22319668  0.73684832    -0.72200
O30         O  0.28143268  0.22232635  0.73559224    -0.72400
O31         O  0.23824427  0.19698524  0.78541830    -0.72300
O32         O  0.23776448  0.24867763  0.68674996    -0.72300
O33         O  0.23758229  0.29899064  0.71991496    -0.72300
O34         O  0.24082610  0.24717701  0.81877025    -0.72300
O35         O  0.28264265  0.27378161  0.76681284    -0.72200
O36         O  0.19544683  0.27281647  0.77140553    -0.72400
V37         V  0.23785389  0.22378811  0.73678659     1.35200
V38         V  0.23903859  0.27220513  0.76866403     1.35200
C39         C  0.17990456  0.24811455  0.75438929     0.77000
C40         C  0.29683547  0.24818542  0.75046230     0.77100
C41         C  0.24041761  0.21311105  0.81891575     0.77000
C42         C  0.23800697  0.28268526  0.68638920     0.76900
O43         O  0.98863154  0.24910001  0.81874945    -0.72200
O44         O  0.98809653  0.19458436  0.72197322    -0.72400
O45         O  0.03192373  0.22156966  0.77066047    -0.72300
O46         O  0.44464193  0.22357908  0.76818001    -0.72300
O47         O  0.44448531  0.27250773  0.73232028    -0.72300
O48         O  0.03246409  0.27079783  0.73507447    -0.72300
O49         O  0.98769385  0.24401910  0.68706421    -0.72200
O50         O  0.99012369  0.29847702  0.78364282    -0.72400
V51         V  0.98829613  0.22270031  0.76967917     1.35200
V52         V  0.98880737  0.27030757  0.73609892     1.35200
C53         C  0.98990977  0.28312241  0.81772308     0.77000
C54         C  0.98792796  0.20998939  0.68792502     0.77100
C55         C  0.04703291  0.24610720  0.75292533     0.77000
C56         C  0.42961482  0.24772897  0.75007528     0.76900
O57         O  0.20348164  0.72060966  0.76550811    -0.72200
O58         O  0.29048157  0.72123222  0.76999852    -0.72400
O59         O  0.24614869  0.74754885  0.81684666    -0.72300
O60         O  0.24803107  0.69512241  0.71835005    -0.72300
O61         O  0.24873665  0.74544036  0.68506491    -0.72300
O62         O  0.24754037  0.79747906  0.78283749    -0.72300
O63         O  0.29194871  0.77129204  0.73619762    -0.72200
O64         O  0.20420712  0.77120703  0.73255973    -0.72400
V65         V  0.24702796  0.72211367  0.76705121     1.35200
V66         V  0.24806461  0.77036479  0.73476465     1.35200
C67         C  0.18893091  0.74560694  0.74829479     0.77000
C68         C  0.30614921  0.74612442  0.75392054     0.77100
C69         C  0.24701291  0.78161568  0.81657234     0.77000
C70         C  0.24857677  0.71148265  0.68475334     0.76900
O71         O  0.99825280  0.74649988  0.68246686    -0.72200
O72         O  0.49922489  0.69479515  0.77932999    -0.72400
O73         O  0.45249123  0.72185463  0.73602758    -0.72300
O74         O  0.04062204  0.71903269  0.73292754    -0.72300
O75         O  0.04087950  0.76877507  0.76728113    -0.72300
O76         O  0.45572032  0.77156407  0.77033782    -0.72300
O77         O  0.99547723  0.74257356  0.81425191    -0.72200
O78         O  0.49549327  0.79807756  0.71617111    -0.72400
V79         V  0.49593462  0.72250144  0.73123108     1.35200
V80         V  0.49913803  0.77040764  0.76394803     1.35200
C81         C  0.49285198  0.78246086  0.68241173     0.77000
C82         C  0.50253915  0.71061945  0.81292395     0.77100
C83         C  0.43925393  0.74696278  0.75464309     0.77000
C84         C  0.05569439  0.74415947  0.74998950     0.76900
C85         C  0.25016509  0.86786569  0.03396699     0.79800
N86         N  0.25040274  0.84990297  0.99847753    -0.78500
C87         C  0.25193127  0.86755417  0.96270318     0.82200
N88         N  0.25348315  0.90413217  0.96272780    -0.78500
C89         C  0.25359817  0.92278588  0.99811852     0.82300
N90         N  0.25189804  0.90433969  0.03359854    -0.80200
C91         C  0.26154569  0.13334916  0.04011473     0.79800
N92         N  0.25743367  0.15203840  0.00527182    -0.78500
C93         C  0.25270386  0.13471764  0.96968205     0.82200
N94         N  0.25217119  0.09815230  0.96921315    -0.78500
C95         C  0.25592337  0.07901354  0.00388137     0.82300
N96         N  0.26060031  0.09683556  0.03923811    -0.80200
C97         C  0.26122457  0.36643253  0.46861498     0.79800
N98         N  0.25638603  0.34819899  0.50358491    -0.78500
C99         C  0.25108471  0.36587854  0.53871825     0.82200
N100        N  0.25049604  0.40242746  0.53838672    -0.78500
C101        C  0.25495538  0.42113242  0.50354959     0.82300
N102        N  0.26032308  0.40289448  0.46881604    -0.80200
C103        C  0.25105503  0.63132773  0.53435977     0.79800
N104        N  0.25014554  0.64946666  0.49870331    -0.78500
C105        C  0.25064080  0.63176161  0.46277012     0.82200
N106        N  0.25205693  0.59525038  0.46290574    -0.78500
C107        C  0.25306146  0.57673617  0.49830527     0.82300
N108        N  0.25236480  0.59495186  0.53373273    -0.80200
C109        C  0.48882918  0.86927134  0.46533359     0.79800
N110        N  0.00604532  0.90657952  0.46750712    -0.78500
C111        C  0.00534384  0.92457466  0.50318514     0.82200
N112        N  0.00490267  0.90559941  0.53842797    -0.78500
C113        C  0.48953785  0.86885271  0.53669751     0.82300
N114        N  0.48857941  0.85107940  0.50092266    -0.80200
C115        C  0.99435600  0.13438245  0.53553690     0.79800
N116        N  0.99459627  0.09791657  0.53474382    -0.78500
C117        C  0.99869318  0.08001984  0.49952943     0.82200
N118        N  0.00308360  0.09893633  0.46482427    -0.78500
C119        C  0.00342060  0.13554631  0.46524759     0.82300
N120        N  0.99889696  0.15294714  0.50070688    -0.80200
C121        C  0.00038979  0.36773437  0.96385368     0.79800
N122        N  0.00413298  0.34992399  0.99922395    -0.78500
C123        C  0.00520549  0.36764202  0.03493502     0.82200
N124        N  0.00267255  0.40409700  0.03501867    -0.78500
C125        C  0.99873495  0.42251591  0.99972901     0.82300
N126        N  0.99770947  0.40407746  0.96427852    -0.80200
C127        C  0.51223293  0.63432255  0.96515281     0.79800
N128        N  0.98910788  0.59622808  0.96849217    -0.78500
C129        C  0.98950157  0.57819797  0.00432522     0.82200
N130        N  0.98853624  0.59708025  0.03942660    -0.78500
C131        C  0.51181418  0.63547022  0.03662250     0.82300
N132        N  0.51242788  0.65289870  0.00047996    -0.80200
O133        O  0.31095060  0.22508019  0.27229552    -0.72200
O134        O  0.22341118  0.22498919  0.27249532    -0.72400
O135        O  0.26657867  0.19704038  0.22481957    -0.72300
O136        O  0.26789995  0.25311123  0.32043471    -0.72300
O137        O  0.26702238  0.30196858  0.28444126    -0.72300
O138        O  0.26778207  0.24594056  0.18884981    -0.72300
O139        O  0.22374154  0.27344679  0.23571513    -0.72200
O140        O  0.31091909  0.27471403  0.23756617    -0.72400
V141        V  0.26719673  0.22601629  0.27189250     1.35200
V142        V  0.26735542  0.27303696  0.23732543     1.35200
C143        C  0.32584744  0.25014871  0.25506792     0.77000
C144        C  0.20865151  0.24900719  0.25366272     0.77100
C145        C  0.26707565  0.21192955  0.19047771     0.77000
C146        C  0.26759495  0.28712024  0.31881825     0.76900
O147        O  0.01689894  0.25393957  0.18421210    -0.72200
O148        O  0.01618133  0.19916499  0.28090923    -0.72400
O149        O  0.47341618  0.22698109  0.23210710    -0.72300
O150        O  0.06038723  0.22607805  0.23299781    -0.72300
O151        O  0.06114858  0.27622723  0.26670621    -0.72300
O152        O  0.47375011  0.27628664  0.26734378    -0.72300
O153        O  0.01790314  0.24847555  0.31597404    -0.72200
O154        O  0.01694043  0.30335287  0.21912101    -0.72400
V155        V  0.01671560  0.22746708  0.23326116     1.35200
V156        V  0.01747174  0.27496932  0.26685484     1.35200
C157        C  0.01662240  0.28798449  0.18506859     0.77000
C158        C  0.01649363  0.21444922  0.31499323     0.77100
C159        C  0.45872112  0.25109858  0.25044267     0.77000
C160        C  0.07565103  0.25114966  0.24977045     0.76900
C161        C  0.12493599  0.21792857  0.25340486    -0.26800
C162        C  0.10961835  0.25086156  0.24998766    -0.14800
C163        C  0.12697159  0.28300002  0.24704119     0.35800
C164        C  0.15921580  0.28176393  0.24813345    -0.26200
C165        C  0.17460073  0.24892027  0.25254883    -0.15400
C166        C  0.15720518  0.21670423  0.25495785     0.36900
N167        N  0.17216311  0.18263636  0.25805413    -0.89700
H168        H  0.11180116  0.19301894  0.25543562     0.18000
H169        H  0.17225730  0.30671972  0.24585210     0.18000
N170        N  0.11196355  0.31686295  0.24192190    -0.88700
H171        H  0.16525684  0.16689291  0.23335718     0.35400
H172        H  0.16448838  0.16988152  0.28438733     0.40500
H173        H  0.11963530  0.32841059  0.21489869     0.40100
H174        H  0.11882436  0.33372892  0.26568467     0.35000
C175        C  0.37582663  0.21798654  0.25685126    -0.26800
C176        C  0.35987381  0.25062398  0.25494775    -0.14800
C177        C  0.37666491  0.28325202  0.25240094     0.35800
C178        C  0.40886605  0.28271701  0.25126846    -0.26200
C179        C  0.42479810  0.25012829  0.25218107    -0.15400
C180        C  0.40817241  0.21736773  0.25541231     0.36900
N181        N  0.42415119  0.18373102  0.25785111    -0.89700
H182        H  0.36301552  0.19286858  0.25900240     0.18000
H183        H  0.42147294  0.30799181  0.24916547     0.18000
N184        N  0.36116975  0.31709070  0.25168172    -0.88700
H185        H  0.40851917  0.16220822  0.25990974     0.35400
H186        H  0.43693342  0.18381855  0.28476156     0.40500
H187        H  0.36740834  0.33065640  0.22519828     0.40100
H188        H  0.36901895  0.33233396  0.27630403     0.35000
C189        C  0.00441238  0.29139707  0.11195392    -0.26800
C190        C  0.01491351  0.30890844  0.14699808    -0.14800
C191        C  0.51514779  0.34850767  0.14481567     0.35800
C192        C  0.51264411  0.36674222  0.10773182    -0.26200
C193        C  0.00843439  0.34708866  0.07327160    -0.15400
C194        C  0.00087547  0.30997488  0.07545878     0.36900
N195        N  0.98873427  0.29098539  0.04110027    -0.89700
H196        H  0.99812239  0.26309435  0.11294365     0.18000
H197        H  0.51274334  0.39590226  0.10800476     0.18000
N198        N  0.51804316  0.36889292  0.18139897    -0.88700
H199        H  0.96710630  0.28044414  0.04867939     0.35400
H200        H  0.00328002  0.26947702  0.03488536     0.40500
H201        H  0.49886664  0.38551708  0.18365935     0.40100
H202        H  0.53765020  0.38534392  0.17916544     0.35000
C203        C  0.97659875  0.51905303  0.97346027    -0.26800
C204        C  0.99131553  0.53834860  0.00464597    -0.14800
C205        C  0.52345354  0.51861320  0.03155146     0.35800
C206        C  0.52122558  0.48109562  0.02912247    -0.26200
C207        C  0.99577597  0.46233128  0.00026387    -0.15400
C208        C  0.97849066  0.48156659  0.97094298     0.36900
N209        N  0.96186462  0.46404304  0.93886484    -0.89700
H210        H  0.96328023  0.53324199  0.95077409     0.18000
H211        H  0.53336627  0.46517899  0.05147334     0.18000
N212        N  0.54199494  0.53384491  0.06330964    -0.88700
H213        H  0.94718370  0.44451860  0.95126056     0.35400
H214        H  0.97748266  0.45189086  0.91945447     0.40500
H215        H  0.52795576  0.54877078  0.08237358     0.40100
H216        H  0.55865674  0.55080777  0.05051267     0.35000
C217        C  0.50540597  0.13913832  0.38864289    -0.26800
C218        C  0.00810273  0.15604425  0.42716040    -0.14800
C219        C  0.02082371  0.19142229  0.42623898     0.35800
C220        C  0.02382107  0.20945685  0.38934282    -0.26200
C221        C  0.01461057  0.19329626  0.35286543    -0.15400
C222        C  0.50792198  0.15752760  0.35176948     0.36900
N223        N  0.49989562  0.13921391  0.31502410    -0.89700
H224        H  0.49716911  0.11150047  0.38821564     0.18000
H225        H  0.03341418  0.23651810  0.38931063     0.18000
N226        N  0.03166323  0.20964290  0.46181779    -0.88700
H227        H  0.47708370  0.13017540  0.31722442     0.35400
H228        H  0.51397428  0.11669372  0.31247149     0.40500
H229        H  0.04746539  0.19325268  0.47685097     0.40100
H230        H  0.01303276  0.21488391  0.48059823     0.35000
C231        C  0.99077751  0.98180723  0.46913770    -0.26800
C232        C  0.00369513  0.96443578  0.50297242    -0.14800
C233        C  0.48454692  0.98502740  0.53478843     0.35800
C234        C  0.48703711  0.02261104  0.53285144    -0.26200
C235        C  0.99995898  0.04033536  0.49985177    -0.15400
C236        C  0.98882647  0.01942632  0.46732329     0.36900
N237        N  0.97478601  0.03614306  0.43288593    -0.89700
H238        H  0.98174367  0.96615126  0.44402653     0.18000
H239        H  0.48076322  0.03788991  0.55936793     0.18000
N240        N  0.47334709  0.96854009  0.57107988    -0.88700
H241        H  0.95231693  0.02603472  0.43001800     0.35400
H242        H  0.98700812  0.02862160  0.40716903     0.40500
H243        H  0.45140009  0.97853844  0.57681160     0.40100
H244        H  0.48783197  0.97639444  0.59493492     0.35000
C245        C  0.25714106  0.36342558  0.39369392    -0.26800
C246        C  0.26567735  0.34679945  0.43018905    -0.14800
C247        C  0.27706797  0.31130493  0.42938885     0.35800
C248        C  0.27763552  0.29254946  0.39259210    -0.26200
C249        C  0.26787527  0.30870723  0.35637799    -0.15400
C250        C  0.25816473  0.34480915  0.35695002     0.36900
N251        N  0.24836242  0.36243164  0.32059678    -0.89700
H252        H  0.24863707  0.39073853  0.39367758     0.18000
H253        H  0.28589803  0.26514162  0.39221587     0.18000
N254        N  0.28822719  0.29447243  0.46574107    -0.88700
H255        H  0.26211067  0.38543102  0.31660961     0.35400
H256        H  0.22563162  0.37067379  0.32444184     0.40500
H257        H  0.30766182  0.30900921  0.47541922     0.40100
H258        H  0.29556053  0.26828877  0.45990202     0.35000
C259        C  0.26908238  0.47944613  0.47127809    -0.26800
C260        C  0.25432619  0.46101779  0.50298269    -0.14800
C261        C  0.23917568  0.48111994  0.53294999     0.35800
C262        C  0.23921942  0.51873589  0.53074049    -0.26200
C263        C  0.25380109  0.53702749  0.49892698    -0.15400
C264        C  0.26906226  0.51708571  0.46910527     0.36900
N265        N  0.28545483  0.53480972  0.43726667    -0.89700
H266        H  0.28116843  0.46466045  0.44817084     0.18000
H267        H  0.22727036  0.53368140  0.55386100     0.18000
N268        N  0.22302354  0.46369674  0.56521116    -0.88700
H269        H  0.27649430  0.52556682  0.40970661     0.35400
H270        H  0.30851745  0.52716498  0.43902436     0.40500
H271        H  0.19998091  0.47147115  0.56382499     0.40100
H272        H  0.23233214  0.47302431  0.59254541     0.35000
C273        C  0.25463770  0.13630426  0.11457557    -0.26800
C274        C  0.26541693  0.15261327  0.07896067    -0.14800
C275        C  0.27840929  0.18760666  0.08076117     0.35800
C276        C  0.27872513  0.20619012  0.11761418    -0.26200
C277        C  0.26694653  0.19042043  0.15293079    -0.15400
C278        C  0.25506691  0.15486306  0.15153181     0.36900
N279        N  0.24264570  0.13806698  0.18717718    -0.89700
H280        H  0.24472237  0.10943583  0.11334159     0.18000
H281        H  0.28845573  0.23315785  0.11879154     0.18000
N282        N  0.29149314  0.20407438  0.04533917    -0.88700
H283        H  0.23541592  0.11168604  0.18102003     0.35400
H284        H  0.22294578  0.15222465  0.19524793     0.40500
H285        H  0.31051826  0.18883722  0.03700014     0.40100
H286        H  0.29983176  0.22995532  0.05181877     0.35000
C287        C  0.26260169  0.02138720  0.96676277    -0.26800
C288        C  0.25517594  0.03912170  0.00281716    -0.14800
C289        C  0.24714270  0.01839735  0.03700406     0.35800
C290        C  0.24697959  0.98076560  0.03463335    -0.26200
C291        C  0.25450846  0.96285776  0.99863305    -0.15400
C292        C  0.26249565  0.98369120  0.96437041     0.36900
N293        N  0.27105351  0.96698174  0.92718769    -0.89700
H294        H  0.26901463  0.03682170  0.94022746     0.18000
H295        H  0.24046327  0.96558430  0.06129119     0.18000
N296        N  0.23833254  0.03528976  0.07402000    -0.88700
H297        H  0.29332110  0.97565723  0.91991265     0.35400
H298        H  0.25610930  0.97596136  0.90449583     0.40500
H299        H  0.25318947  0.02655780  0.09693032     0.40100
H300        H  0.21604340  0.02658066  0.08114004     0.35000
C301        C  0.00992527  0.83861014  0.64862557    -0.26800
C302        C  0.49121423  0.80402923  0.64487996    -0.14800
C303        C  0.47504136  0.79235084  0.60995407     0.35800
C304        C  0.47439725  0.81436866  0.57563209    -0.26200
C305        C  0.48962865  0.84798046  0.57493877    -0.15400
C306        C  0.01147542  0.86108567  0.61478901     0.36900
N307        N  0.02125353  0.89752017  0.62119732    -0.89700
H308        H  0.01604302  0.84987512  0.67784792     0.18000
H309        H  0.46180779  0.80501097  0.54918658     0.18000
N310        N  0.45847859  0.75880481  0.60857921    -0.88700
H311        H  0.00318088  0.91450496  0.61331936     0.35400
H312        H  0.04045529  0.90283556  0.60317807     0.40500
H313        H  0.44276943  0.75810629  0.63239784     0.40100
H314        H  0.47406078  0.73779394  0.61205547     0.35000
C315        C  0.99860400  0.70689297  0.88884344    -0.26800
C316        C  0.50578209  0.69013361  0.85108560    -0.14800
C317        C  0.49342525  0.65510840  0.85560191     0.35800
C318        C  0.49635326  0.63716479  0.89275213    -0.26200
C319        C  0.51130745  0.65355285  0.92585651    -0.15400
C320        C  0.99715533  0.68954698  0.92636390     0.36900
N321        N  0.00440963  0.70977962  0.96208095    -0.89700
H322        H  0.00492133  0.73519158  0.88816467     0.18000
H323        H  0.48611147  0.61058340  0.89591747     0.18000
N324        N  0.47699748  0.63804813  0.82304822    -0.88700
H325        H  0.98932291  0.73146737  0.96356975     0.35400
H326        H  0.02678412  0.72011861  0.95930393     0.40500
H327        H  0.45468436  0.63210128  0.83289355     0.40100
H328        H  0.48784495  0.61376011  0.81658796     0.35000
C329        C  0.13885395  0.77745430  0.74910840    -0.26800
C330        C  0.15488668  0.74496028  0.74727381    -0.14800
C331        C  0.13813536  0.71221558  0.74560229     0.35800
C332        C  0.10584060  0.71250267  0.74629460    -0.26200
C333        C  0.08978490  0.74495319  0.74922298    -0.15400
C334        C  0.10656303  0.77772943  0.75039428     0.36900
N335        N  0.09093892  0.81143919  0.75208927    -0.89700
H336        H  0.15143949  0.80279194  0.75030407     0.18000
H337        H  0.09330185  0.68713980  0.74497582     0.18000
N338        N  0.15379511  0.67861194  0.74242197    -0.88700
H339        H  0.09736350  0.82666554  0.72683954     0.35400
H340        H  0.09851447  0.82512728  0.77797070     0.40500
H341        H  0.14625454  0.66581520  0.71595543     0.40100
H342        H  0.14735202  0.66251556  0.76697790     0.35000
C343        C  0.35642489  0.77874959  0.75696952    -0.26800
C344        C  0.34020798  0.74583289  0.75599446    -0.14800
C345        C  0.35699448  0.71331915  0.75649658     0.35800
C346        C  0.38914102  0.71451175  0.75664125    -0.26200
C347        C  0.40531461  0.74737088  0.75722215    -0.15400
C348        C  0.38874765  0.77978374  0.75799650     0.36900
N349        N  0.40458324  0.81380841  0.75845657    -0.89700
H350        H  0.34396492  0.80386514  0.75695963     0.18000
H351        H  0.40160837  0.68939788  0.75622985     0.18000
N352        N  0.34223694  0.67864233  0.75550361    -0.88700
H353        H  0.39756850  0.82794265  0.78405082     0.35400
H354        H  0.39774255  0.82833477  0.73289208     0.40500
H355        H  0.32759711  0.67737174  0.73030946     0.40100
H356        H  0.32939568  0.67520762  0.78185447     0.35000
C357        C  0.24642320  0.84067741  0.85160144    -0.26800
C358        C  0.24792428  0.80296759  0.85429766    -0.14800
C359        C  0.25116864  0.78686198  0.89264119     0.35800
C360        C  0.25280899  0.80853617  0.92716183    -0.26200
C361        C  0.25113576  0.84633629  0.92462327    -0.15400
C362        C  0.24793929  0.86239026  0.88613587     0.36900
N363        N  0.24588959  0.90061294  0.88163099    -0.89700
H364        H  0.24396589  0.85366297  0.82241423     0.18000
H365        H  0.25543299  0.79533910  0.95618319     0.18000
N366        N  0.25305076  0.74856601  0.89690892    -0.88700
H367        H  0.22503590  0.90639630  0.86718699     0.35400
H368        H  0.26379087  0.90927123  0.86286346     0.40500
H369        H  0.23515054  0.73993531  0.91569155     0.40100
H370        H  0.27390227  0.74261560  0.91127221     0.35000
C371        C  0.25277629  0.65394726  0.64697539    -0.26800
C372        C  0.24905523  0.69139367  0.64611015    -0.14800
C373        C  0.24586119  0.70884246  0.60835527     0.35800
C374        C  0.24658242  0.68872088  0.57263475    -0.26200
C375        C  0.25040406  0.65121034  0.57335299    -0.15400
C376        C  0.25351730  0.63376602  0.61125008     0.36900
N377        N  0.25763061  0.59562938  0.61398355    -0.89700
H378        H  0.25532840  0.64004425  0.67561208     0.18000
H379        H  0.24399511  0.70283373  0.54414520     0.18000
N380        N  0.24160458  0.74697573  0.60587001    -0.88700
H381        H  0.23970461  0.58480419  0.63127873     0.35400
H382        H  0.27835428  0.59086292  0.62923252     0.40500
H383        H  0.22081737  0.75169042  0.59074813     0.40100
H384        H  0.25942823  0.75794117  0.58850137     0.35000
C385        C  0.97875948  0.20649938  0.61402425    -0.26800
C386        C  0.98812599  0.18919909  0.64977302    -0.14800
C387        C  0.49457315  0.15337736  0.64574294     0.35800
C388        C  0.49632849  0.13600395  0.60844777    -0.26200
C389        C  0.99081163  0.15346273  0.57446517    -0.15400
C390        C  0.97964786  0.18898640  0.57650464     0.36900
N391        N  0.96892769  0.20708910  0.54071654    -0.89700
H392        H  0.97047578  0.23387394  0.61531782     0.18000
H393        H  0.50290248  0.10795070  0.60805762     0.18000
N394        N  0.50102279  0.13262808  0.68128438    -0.88700
H395        H  0.96189437  0.23321705  0.54745139     0.35400
H396        H  0.94939076  0.19318113  0.53027377     0.40500
H397        H  0.48159069  0.13242516  0.69975316     0.40100
H398        H  0.51965316  0.14438286  0.69668466     0.35000
C399        C  0.00254140  0.34047247  0.85309974    -0.26800
C400        C  0.99179594  0.30467775  0.85519687    -0.14800
C401        C  0.48126634  0.29221142  0.88995937     0.35800
C402        C  0.48382955  0.31329326  0.92492587    -0.26200
C403        C  0.99756719  0.34696269  0.92586336    -0.15400
C404        C  0.00564349  0.36161049  0.88800571     0.36900
N405        N  0.01787442  0.39745900  0.88486602    -0.89700
H406        H  0.00919309  0.35201712  0.82429635     0.18000
H407        H  0.47727173  0.30140299  0.95358590     0.18000
N408        N  0.46972364  0.25603818  0.89298190    -0.88700
H409        H  0.00374331  0.41195099  0.86514291     0.35400
H410        H  0.03974031  0.39605159  0.87196881     0.40500
H411        H  0.48400551  0.24190811  0.91285651     0.40100
H412        H  0.44772767  0.25684866  0.90558229     0.35000
C413        C  0.12978619  0.21547579  0.74905933    -0.26800
C414        C  0.14585864  0.24812568  0.75476764    -0.14800
C415        C  0.12908900  0.28013593  0.75983199     0.35800
C416        C  0.09682140  0.27894015  0.75875645    -0.26200
C417        C  0.08090329  0.24625119  0.75341993    -0.15400
C418        C  0.09753104  0.21427453  0.74860560     0.36900
N419        N  0.08175167  0.18069712  0.74208096    -0.89700
H420        H  0.14227771  0.19065896  0.74504608     0.18000
H421        H  0.08414369  0.30366500  0.76255167     0.18000
N422        N  0.14462473  0.31401976  0.76523947    -0.88700
H423        H  0.08851429  0.16282994  0.76483378     0.35400
H424        H  0.08888883  0.17029673  0.71435849     0.40500
H425        H  0.13743940  0.32503339  0.79263616     0.40100
H426        H  0.13771484  0.33125304  0.74194435     0.35000
C427        C  0.34621822  0.21660162  0.75874794    -0.26800
C428        C  0.33062215  0.24826327  0.74908292    -0.14800
C429        C  0.34741107  0.27951751  0.73852302     0.35800
C430        C  0.37972686  0.27866693  0.73890376    -0.26200
C431        C  0.39552031  0.24718970  0.74962095    -0.15400
C432        C  0.37843583  0.21580340  0.75937036     0.36900
N433        N  0.39357351  0.18291684  0.76954553    -0.89700
H434        H  0.33331196  0.19246615  0.76659845     0.18000
H435        H  0.39259686  0.30278875  0.73101348     0.18000
N436        N  0.33157973  0.31175136  0.72688851    -0.88700
H437        H  0.38626997  0.16311700  0.74907593     0.35400
H438        H  0.38647326  0.17508679  0.79843224     0.40500
H439        H  0.31936691  0.30618454  0.70022057     0.40100
H440        H  0.34731825  0.33232630  0.72000460     0.35000
C441        C  0.23567276  0.34056624  0.64885509    -0.26800
C442        C  0.23963416  0.30315606  0.64798785    -0.14800
C443        C  0.24655635  0.28648546  0.61088398     0.35800
C444        C  0.24972925  0.30741754  0.57587658    -0.26200
C445        C  0.24635349  0.34504320  0.57674466    -0.15400
C446        C  0.23894738  0.36155696  0.61390444     0.36900
N447        N  0.23478151  0.39960737  0.61675384    -0.89700
H448        H  0.23023588  0.35389623  0.67700598     0.18000
H449        H  0.25537160  0.29386729  0.54795477     0.18000
N450        N  0.25113346  0.24841687  0.60852811    -0.88700
H451        H  0.25059701  0.40981670  0.63789905     0.35400
H452        H  0.21261400  0.40423541  0.62758549     0.40500
H453        H  0.27331579  0.24401615  0.59762324     0.40100
H454        H  0.23537448  0.23780715  0.58755926     0.35000
C455        C  0.25405345  0.13781596  0.89463315    -0.26800
C456        C  0.24873645  0.15525730  0.93151996    -0.14800
C457        C  0.24002077  0.19182316  0.93101697     0.35800
C458        C  0.23737087  0.21012344  0.89404466    -0.26200
C459        C  0.24288444  0.19264550  0.85723593    -0.15400
C460        C  0.25130573  0.15604437  0.85774602     0.36900
N461        N  0.25785258  0.13732101  0.82100178    -0.89700
H462        H  0.26094592  0.10987524  0.89423329     0.18000
H463        H  0.23069100  0.23814222  0.89423325     0.18000
N464        N  0.23323589  0.21043615  0.96775107    -0.88700
H465        H  0.24301918  0.11502355  0.81900516     0.35400
H466        H  0.28042680  0.12792807  0.82273917     0.40500
H467        H  0.21063662  0.21972166  0.96585007     0.40100
H468        H  0.24797812  0.23280152  0.96993918     0.35000
C469        C  0.01288370  0.81316507  0.42821043    -0.26800
C470        C  0.48856123  0.84909657  0.42665545    -0.14800
C471        C  0.49789820  0.86492362  0.38975478     0.35800
C472        C  0.49847706  0.84403771  0.35453298    -0.26200
C473        C  0.49013852  0.80742812  0.35518998    -0.15400
C474        C  0.01128994  0.79229554  0.39292873     0.36900
N475        N  0.01920189  0.75482109  0.39449289    -0.89700
H476        H  0.01957907  0.80032971  0.45630207     0.18000
H477        H  0.50617976  0.85648987  0.32666584     0.18000
N478        N  0.50761007  0.90185949  0.38783544    -0.88700
H479        H  0.02465518  0.74701229  0.42405023     0.35400
H480        H  0.03923372  0.75162770  0.37756151     0.40500
H481        H  0.49354443  0.91509239  0.36692620     0.40100
H482        H  0.53019609  0.90280197  0.37711191     0.35000
C483        C  0.50947912  0.71178416  0.11380110    -0.26800
C484        C  0.50377899  0.69290784  0.14980902    -0.14800
C485        C  0.00338962  0.65805694  0.14832004     0.35800
C486        C  0.00091701  0.63878919  0.11201114    -0.26200
C487        C  0.51034545  0.65586831  0.07535924    -0.15400
C488        C  0.51289467  0.69384339  0.07692419     0.36900
N489        N  0.51905448  0.71463278  0.04135850    -0.89700
H490        H  0.51140996  0.74089098  0.11405170     0.18000
H491        H  0.01009296  0.61183532  0.11085857     0.18000
N492        N  0.01780057  0.64165454  0.18269455    -0.88700
H493        H  0.53937303  0.72941393  0.04617892     0.35400
H494        H  0.50108569  0.73280249  0.03725818     0.40500
H495        H  0.04014632  0.63450631  0.17462033     0.40100
H496        H  0.00557037  0.61806843  0.18963467     0.35000
C497        C  0.13773812  0.78363626  0.25527104    -0.26800
C498        C  0.15360594  0.75111860  0.25124027    -0.14800
C499        C  0.13644035  0.71845743  0.24839336     0.35800
C500        C  0.10429125  0.71918057  0.24954610    -0.26200
C501        C  0.08858587  0.75177195  0.25246793    -0.15400
C502        C  0.10547426  0.78424117  0.25559519     0.36900
N503        N  0.08996228  0.81780825  0.26012641    -0.89700
H504        H  0.15040111  0.80884784  0.25776444     0.18000
H505        H  0.09145138  0.69405910  0.24732451     0.18000
N506        N  0.15080035  0.68406258  0.24511788    -0.88700
H507        H  0.09666085  0.83472853  0.23639647     0.35400
H508        H  0.09738730  0.82958315  0.28723681     0.40500
H509        H  0.16613841  0.68092572  0.26933327     0.40100
H510        H  0.16279361  0.68298052  0.21787813     0.35000
C511        C  0.35358955  0.71963433  0.25320313    -0.26800
C512        C  0.33872536  0.75281108  0.24945077    -0.14800
C513        C  0.35641711  0.78445418  0.24451699     0.35800
C514        C  0.38863014  0.78242073  0.24350028    -0.26200
C515        C  0.40360300  0.74927091  0.24794564    -0.15400
C516        C  0.38578106  0.71761597  0.25287854     0.36900
N517        N  0.40017275  0.68328757  0.25698593    -0.89700
H518        H  0.34014229  0.69510400  0.25688997     0.18000
H519        H  0.40196822  0.80701722  0.23978512     0.18000
N520        N  0.34176782  0.81854569  0.23954180    -0.88700
H521        H  0.39210332  0.66667014  0.23363499     0.35400
H522        H  0.39320977  0.67193148  0.28443868     0.40500
H523        H  0.34856243  0.82938880  0.21176010     0.36500
H524        H  0.34980834  0.83571464  0.26239939     0.35000
C525        C  0.23667906  0.79346801  0.11114010    -0.26800
C526        C  0.24687305  0.81010902  0.14685750    -0.14800
C527        C  0.25763752  0.84607106  0.14544927     0.35800
C528        C  0.25811312  0.86454710  0.10849054    -0.26200
C529        C  0.24820156  0.84778096  0.07259672    -0.15400
C530        C  0.23703209  0.81189317  0.07423701     0.36900
N531        N  0.22546087  0.79407259  0.03877412    -0.89700
H532        H  0.22803310  0.76599178  0.11181005     0.18000
H533        H  0.26689103  0.89196106  0.10789853     0.18000
N534        N  0.26892966  0.86369256  0.18117490    -0.88700
H535        H  0.20261299  0.78633992  0.04401455     0.35400
H536        H  0.23829720  0.77077766  0.03435312     0.40500
H537        H  0.25601950  0.88693275  0.18556618     0.40100
H538        H  0.29179175  0.87153012  0.17621124     0.35000
C539        C  0.25553025  0.65982822  0.35156383    -0.26800
C540        C  0.24699602  0.69607024  0.35364177    -0.14800
C541        C  0.23907206  0.71064443  0.39166803     0.35800
C542        C  0.24007905  0.68890424  0.42613812    -0.26200
C543        C  0.24907330  0.65265011  0.42429060    -0.15400
C544        C  0.25676083  0.63813494  0.38600724     0.36900
N545        N  0.26670152  0.60188788  0.38072505    -0.89700
H546        H  0.26182018  0.64812543  0.32281037     0.18000
H547        H  0.23370797  0.70079710  0.45474272     0.18000
N548        N  0.22944207  0.74713908  0.39648923    -0.88700
H549        H  0.24891276  0.58429246  0.38905092     0.35400
H550        H  0.28620424  0.59782004  0.39873954     0.40500
H551        H  0.21048535  0.75167040  0.37758791     0.40100
H552        H  0.24756052  0.76440334  0.38849777     0.35000
O553        O  0.74597335  0.80380879  0.21710261    -0.72200
O554        O  0.74706901  0.75049266  0.31474820    -0.72400
O555        O  0.79000610  0.77741042  0.26504726    -0.72300
O556        O  0.70280095  0.77690802  0.26698947    -0.72300
O557        O  0.70189648  0.72701243  0.23295134    -0.72300
O558        O  0.78932993  0.72733352  0.23128577    -0.72300
O559        O  0.74604702  0.70066287  0.28070801    -0.72200
O560        O  0.74521781  0.75404175  0.18291240    -0.72400
V561        V  0.74640914  0.77618197  0.26527980     1.35200
V562        V  0.74560240  0.72825611  0.23251089     1.35200
C563        C  0.74597293  0.78810547  0.18325518     0.77000
C564        C  0.74685594  0.71650373  0.31450150     0.77100
C565        C  0.80458294  0.75249582  0.24796627     0.77000
C566        C  0.68745805  0.75147266  0.25106818     0.76900
O567        O  0.99706565  0.75356583  0.31889323    -0.72200
O568        O  0.49831551  0.69806213  0.22172550    -0.72400
O569        O  0.53935071  0.72631118  0.27363092    -0.72300
O570        O  0.95233742  0.72640225  0.27034615    -0.72300
O571        O  0.95263876  0.77685876  0.23709765    -0.72300
O572        O  0.54012797  0.77615625  0.23926512    -0.72300
O573        O  0.99426675  0.74892675  0.18709250    -0.72200
O574        O  0.49396566  0.80173692  0.28366536    -0.72400
V575        V  0.49571730  0.72608480  0.26944308     1.35200
V576        V  0.49660454  0.77375675  0.23604937     1.35200
C577        C  0.49240649  0.78618273  0.31759933     0.77000
C578        C  0.50022254  0.71359914  0.18781025     0.77100
C579        C  0.55462147  0.75164185  0.25750419     0.77000
C580        C  0.93758738  0.75144301  0.25331874     0.76900
O581        O  0.69462562  0.22416893  0.73592936    -0.72200
O582        O  0.78199876  0.22479731  0.73639178    -0.72400
O583        O  0.73845865  0.19758446  0.78471643    -0.72300
O584        O  0.73844458  0.25130888  0.68760629    -0.72300
O585        O  0.74027558  0.30096811  0.72196752    -0.72300
O586        O  0.73717696  0.24706767  0.81937832    -0.72300
O587        O  0.78225384  0.27349443  0.77250046    -0.72200
O588        O  0.69493638  0.27483566  0.76853676    -0.72400
V589        V  0.73832552  0.22542566  0.73684626     1.35200
V590        V  0.73859478  0.27312677  0.76999938     1.35200
C591        C  0.67985230  0.24973600  0.75152449     0.77000
C592        C  0.79709519  0.24929440  0.75449250     0.77100
C593        C  0.73816677  0.21305400  0.81866839     0.77000
C594        C  0.73993919  0.28526707  0.68807063     0.76900
O595        O  0.48904448  0.25123926  0.81590229    -0.72200
O596        O  0.48731582  0.19633869  0.71939466    -0.72400
O597        O  0.53187439  0.22366743  0.76675553    -0.72300
O598        O  0.94462693  0.22161465  0.76977321    -0.72300
O599        O  0.94515649  0.27196295  0.73621407    -0.72300
O600        O  0.53187266  0.27352714  0.73237894    -0.72300
O601        O  0.48782273  0.24554252  0.68413453    -0.72200
O602        O  0.48847953  0.30048142  0.78054805    -0.72400
V603        V  0.48822920  0.22469838  0.76693854     1.35200
V604        V  0.48816209  0.27206890  0.73302341     1.35200
C605        C  0.48887688  0.28525617  0.81474149     0.77000
C606        C  0.48743007  0.21150813  0.68521198     0.77100
C607        C  0.54675924  0.24849023  0.74915813     0.77000
C608        C  0.93005412  0.24685142  0.75296554     0.76900
O609        O  0.70269885  0.72286406  0.76078330    -0.72200
O610        O  0.78983875  0.72355233  0.76615432    -0.72400
O611        O  0.74496513  0.75066940  0.81224002    -0.72300
O612        O  0.74763355  0.69637291  0.71538713    -0.72300
O613        O  0.74722327  0.74602449  0.68063846    -0.72300
O614        O  0.74767583  0.80015926  0.77755706    -0.72300
O615        O  0.79122555  0.77224853  0.72992766    -0.72200
O616        O  0.70378994  0.77338803  0.72777526    -0.72400
V617        V  0.74629379  0.72440437  0.76311773     1.35200
V618        V  0.74746977  0.77205574  0.72971968     1.35200
C619        C  0.68835339  0.74757169  0.74266146     0.77000
C620        C  0.80546683  0.74729088  0.74788684     0.77100
C621        C  0.74621843  0.78470228  0.81157216     0.77000
C622        C  0.74735572  0.71204354  0.68146700     0.76900
O623        O  0.49244599  0.74842289  0.68182553    -0.72200
O624        O  0.99530052  0.69267961  0.78026663    -0.72400
O625        O  0.95313397  0.72002990  0.72974520    -0.72300
O626        O  0.53937235  0.72110862  0.72520102    -0.72300
O627        O  0.54250096  0.77145739  0.75840940    -0.72300
O628        O  0.95365360  0.77022445  0.76335929    -0.72300
O629        O  0.50320682  0.74465267  0.81321352    -0.72200
O630        O  0.99895784  0.79605009  0.71698357    -0.72400
V631        V  0.99686235  0.72048691  0.73199142     1.35200
V632        V  0.99723773  0.76834941  0.76488468     1.35200
C633        C  0.99918855  0.78053749  0.68303151     0.77000
C634        C  0.99450045  0.70854112  0.81404435     0.77100
C635        C  0.93852252  0.74548284  0.74582268     0.77000
C636        C  0.55569889  0.74638707  0.73972859     0.76900
C637        C  0.75151909  0.86697656  0.03157386     0.79800
N638        N  0.75095072  0.84969207  0.99553198    -0.78500
C639        C  0.75126483  0.86805724  0.96006461     0.82200
N640        N  0.75221067  0.90459910  0.96094874    -0.78500
C641        C  0.75283936  0.92256211  0.99675955     0.82300
N642        N  0.75260195  0.90354902  0.03192274    -0.80200
C643        C  0.76020290  0.13366439  0.03881371     0.79800
N644        N  0.75483988  0.15183720  0.00394740    -0.78500
C645        C  0.74987414  0.13411463  0.96871692     0.82200
N646        N  0.75049316  0.09760780  0.96849130    -0.78500
C647        C  0.75573406  0.07879333  0.00306034     0.82300
N648        N  0.76039271  0.09706737  0.03820089    -0.80200
C649        C  0.76003498  0.36588045  0.46913184     0.79800
N650        N  0.75665738  0.34841096  0.50484842    -0.78500
C651        C  0.75289084  0.36679655  0.53982054     0.82200
N652        N  0.75203129  0.40323560  0.53871957    -0.78500
C653        C  0.75495872  0.42125195  0.50321590     0.82300
N654        N  0.75906105  0.40237658  0.46858076    -0.80200
C655        C  0.75076819  0.63138016  0.53287378     0.79800
N656        N  0.74951453  0.64948325  0.49729553    -0.78500
C657        C  0.74985244  0.63163274  0.46151892     0.82200
N658        N  0.75153040  0.59517508  0.46168461    -0.78500
C659        C  0.75261511  0.57671238  0.49711435     0.82300
N660        N  0.75210207  0.59500728  0.53253940    -0.80200
C661        C  0.00656861  0.87012495  0.46660426     0.79800
N662        N  0.48979995  0.90576414  0.46583839    -0.78500
C663        C  0.49055413  0.92411551  0.50131207     0.82200
N664        N  0.49048459  0.90540586  0.53666887    -0.78500
C665        C  0.00552706  0.86900229  0.53809785     0.82300
N666        N  0.00634017  0.85171327  0.50201898    -0.80200
C667        C  0.49526191  0.13514044  0.53334496     0.79800
N668        N  0.49412528  0.09868023  0.53240951    -0.78500
C669        C  0.49901839  0.08041586  0.49757843     0.82200
N670        N  0.50526392  0.09929357  0.46330753    -0.78500
C671        C  0.50685190  0.13588556  0.46372535     0.82300
N672        N  0.50169769  0.15348726  0.49889153    -0.80200
C673        C  0.49860360  0.36933121  0.96164778     0.79800
N674        N  0.50200076  0.35105959  0.99687202    -0.78500
C675        C  0.50609827  0.36853186  0.03248836     0.82200
N676        N  0.50654303  0.40512859  0.03254262    -0.78500
C677        C  0.50287527  0.42401607  0.99759108     0.82300
N678        N  0.49910652  0.40585495  0.96225729    -0.80200
C679        C  0.98810420  0.63277998  0.96758097     0.79800
N680        N  0.51102487  0.59781351  0.96615179    -0.78500
C681        C  0.51067706  0.57989551  0.00195844     0.82200
N682        N  0.51087034  0.59888819  0.03697482    -0.78500
C683        C  0.98714299  0.63358286  0.03898583     0.82300
N684        N  0.98706343  0.65106160  0.00299525    -0.80200
O685        O  0.81067349  0.22541462  0.27179243    -0.72200
O686        O  0.72318293  0.22539246  0.27119254    -0.72400
O687        O  0.76666575  0.19782909  0.22361295    -0.72300
O688        O  0.76718549  0.25288838  0.31976070    -0.72300
O689        O  0.76709447  0.30213626  0.28447121    -0.72300
O690        O  0.76746808  0.24694280  0.18811721    -0.72300
O691        O  0.72373402  0.27452135  0.23555557    -0.72200
O692        O  0.81087798  0.27514051  0.23716691    -0.72400
V693        V  0.76693914  0.22634904  0.27095271     1.35200
V694        V  0.76730554  0.27369343  0.23695990     1.35200
C695        C  0.82565478  0.25049303  0.25472611     0.77000
C696        C  0.70855218  0.24997779  0.25315624     0.77100
C697        C  0.76692229  0.21288317  0.18938047     0.77000
C698        C  0.76698354  0.28689937  0.31864985     0.76900
O699        O  0.51641986  0.25549243  0.18305731    -0.72200
O700        O  0.51768175  0.20040032  0.27944469    -0.72400
O701        O  0.97306188  0.22662749  0.23254561    -0.72300
O702        O  0.56075435  0.22858923  0.23111865    -0.72300
O703        O  0.56101097  0.27828197  0.26566644    -0.72300
O704        O  0.97378806  0.27566589  0.26820472    -0.72300
O705        O  0.51834711  0.24953891  0.31481575    -0.72200
O706        O  0.51638997  0.30477803  0.21807804    -0.72400
V707        V  0.51710400  0.22889880  0.23200644     1.35200
V708        V  0.51737856  0.27627738  0.26580571     1.35200
C709        C  0.51602917  0.28953016  0.18392213     0.77000
C710        C  0.51801900  0.21547362  0.31362660     0.77100
C711        C  0.95852755  0.25085736  0.25089614     0.77000
C712        C  0.57575118  0.25355014  0.24850478     0.76900
C713        C  0.62469040  0.22003766  0.25244710    -0.26800
C714        C  0.60967124  0.25318252  0.24954284    -0.14800
C715        C  0.62725760  0.28523880  0.24818659     0.35800
C716        C  0.65948320  0.28358915  0.24932779    -0.26200
C717        C  0.67455037  0.25042819  0.25256848    -0.15400
C718        C  0.65688999  0.21840744  0.25437571     0.36900
N719        N  0.67150783  0.18412463  0.25728030    -0.89700
H720        H  0.61135672  0.19522894  0.25375491     0.18000
H721        H  0.67276036  0.30843372  0.24796523     0.18000
N722        N  0.61253946  0.31943300  0.24469862    -0.88700
H723        H  0.66461375  0.16865770  0.23236050     0.35400
H724        H  0.66355225  0.17126861  0.28340997     0.40500
H725        H  0.62042182  0.33197884  0.21834383     0.40100
H726        H  0.61944375  0.33524735  0.26933754     0.35000
C727        C  0.87537936  0.21817386  0.25304901    -0.26800
C728        C  0.85960944  0.25085999  0.25482529    -0.14800
C729        C  0.87650515  0.28346587  0.25602029     0.35800
C730        C  0.90874942  0.28288340  0.25503318    -0.26200
C731        C  0.92454298  0.25025144  0.25225320    -0.15400
C732        C  0.90762862  0.21760203  0.25143027     0.36900
N733        N  0.92308297  0.18377703  0.24977527    -0.89700
H734        H  0.86261747  0.19294241  0.25222890     0.18000
H735        H  0.92145732  0.30814657  0.25597033     0.18000
N736        N  0.86104185  0.31720498  0.25907006    -0.88700
H737        H  0.91528208  0.17000902  0.22405978     0.35400
H738        H  0.91675104  0.16871303  0.27518695     0.40500
H739        H  0.86742151  0.33308571  0.23431158     0.40100
H740        H  0.86880060  0.33012722  0.28535357     0.35000
C741        C  0.51253923  0.29173677  0.10892665    -0.26800
C742        C  0.51473717  0.31049276  0.14565436    -0.14800
C743        C  0.02253854  0.34591167  0.14502646     0.35800
C744        C  0.01920678  0.36462132  0.10832855    -0.26200
C745        C  0.50976677  0.34794501  0.07095323    -0.15400
C746        C  0.51013869  0.30982962  0.07189652     0.36900
N747        N  0.50804515  0.28901584  0.03552094    -0.89700
H748        H  0.51242233  0.26256740  0.10871417     0.18000
H749        H  0.02535566  0.39295522  0.10729411     0.18000
N750        N  0.03411057  0.36454261  0.17993358    -0.88700
H751        H  0.48872808  0.27207091  0.03750314     0.35400
H752        H  0.52758958  0.27293212  0.03373501     0.40500
H753        H  0.01947080  0.38602000  0.18588647     0.40100
H754        H  0.05583477  0.37516725  0.17298447     0.35000
C755        C  0.49105824  0.52312094  0.97170780    -0.26800
C756        C  0.50838725  0.54010102  0.00228942    -0.14800
C757        C  0.00827017  0.51913650  0.03421039     0.35800
C758        C  0.01027988  0.48167124  0.03163549    -0.26200
C759        C  0.50414470  0.46400123  0.99825164    -0.15400
C760        C  0.48860526  0.48564848  0.96941694     0.36900
N761        N  0.46942546  0.47075567  0.93812430    -0.89700
H762        H  0.47899311  0.53916661  0.94938654     0.18000
H763        H  0.02370644  0.46760524  0.05429996     0.18000
N764        N  0.02454323  0.53675381  0.06651673    -0.88700
H765        H  0.45303850  0.45359923  0.95120199     0.35400
H766        H  0.48305535  0.45633928  0.91812815     0.40500
H767        H  0.00863895  0.54907368  0.08539448     0.40100
H768        H  0.03936985  0.55622539  0.05431107     0.35000
C769        C  0.99967038  0.13959296  0.39043125    -0.26800
C770        C  0.51226816  0.15620891  0.42558491    -0.14800
C771        C  0.52348823  0.19228027  0.42477005     0.35800
C772        C  0.52575454  0.21057430  0.38793984    -0.26200
C773        C  0.51748077  0.19396199  0.35135626    -0.15400
C774        C  0.00268810  0.15781155  0.35351909     0.36900
N775        N  0.99274912  0.14040860  0.31699412    -0.89700
H776        H  0.98996784  0.11258837  0.39027198     0.18000
H777        H  0.53390590  0.23825758  0.38807731     0.18000
N778        N  0.53342813  0.21108083  0.46038998    -0.88700
H779        H  0.96946003  0.13353423  0.31992803     0.35400
H780        H  0.00515737  0.11662282  0.31392220     0.40500
H781        H  0.54960648  0.19545335  0.47576984     0.40100
H782        H  0.51448348  0.21565657  0.47879909     0.35000
C783        C  0.50222122  0.98173596  0.46554085    -0.26800
C784        C  0.49239696  0.96408567  0.50090352    -0.14800
C785        C  0.01498029  0.98555211  0.53537014     0.35800
C786        C  0.01273162  0.02309041  0.53367751    -0.26200
C787        C  0.49700851  0.04035492  0.49756876    -0.15400
C788        C  0.50460580  0.01937053  0.46351443     0.36900
N789        N  0.51499324  0.03583690  0.42678869    -0.89700
H790        H  0.50847690  0.96629618  0.43913822     0.18000
H791        H  0.02172679  0.03888149  0.55872962     0.18000
N792        N  0.02971104  0.96930006  0.56951356    -0.88700
H793        H  0.49995269  0.02809458  0.40348298     0.35400
H794        H  0.53679837  0.02584404  0.42019684     0.40500
H795        H  0.01799268  0.97717858  0.59550442     0.40100
H796        H  0.05219280  0.97952591  0.57150464     0.35000
C797        C  0.75897539  0.36343903  0.39393010    -0.26800
C798        C  0.76356988  0.34547616  0.43089050    -0.14800
C799        C  0.77062720  0.30833211  0.43044872     0.35800
C800        C  0.77161684  0.29005699  0.39340738    -0.26200
C801        C  0.76643601  0.30793909  0.35661175    -0.15400
C802        C  0.76037627  0.34515433  0.35701996     0.36900
N803        N  0.75499016  0.36451850  0.32020050    -0.89700
H804        H  0.75365107  0.39186018  0.39345576     0.18000
H805        H  0.77672770  0.26158073  0.39336765     0.18000
N806        N  0.77699635  0.28917196  0.46734049    -0.88700
H807        H  0.77123825  0.38543074  0.31839958     0.35400
H808        H  0.73313481  0.37594150  0.32167151     0.40500
H809        H  0.79758128  0.29960495  0.47926876     0.40100
H810        H  0.78082401  0.26191361  0.46164296     0.35000
C811        C  0.76640162  0.47926704  0.46851640    -0.26800
C812        C  0.75391457  0.46105710  0.50200640    -0.14800
C813        C  0.74072308  0.48128282  0.53346653     0.35800
C814        C  0.74069190  0.51885387  0.53109210    -0.26200
C815        C  0.75326380  0.53700038  0.49771391    -0.15400
C816        C  0.76627262  0.51690036  0.46614969     0.36900
N817        N  0.78020078  0.53444916  0.43218242    -0.89700
H818        H  0.77682208  0.46432887  0.44414507     0.18000
H819        H  0.73030193  0.53386206  0.55544542     0.18000
N820        N  0.72670559  0.46400536  0.56755859    -0.88700
H821        H  0.76918831  0.52510885  0.40595400     0.35400
H822        H  0.80325212  0.52674170  0.43096415     0.40500
H823        H  0.70368757  0.47185017  0.56875361     0.40100
H824        H  0.73779331  0.47332894  0.59374242     0.35000
C825        C  0.75879761  0.13562817  0.11411058    -0.26800
C826        C  0.76425243  0.15357290  0.07739514    -0.14800
C827        C  0.77220276  0.19055046  0.07819644     0.35800
C828        C  0.77309798  0.20900593  0.11502545    -0.26200
C829        C  0.76653581  0.19145273  0.15160238    -0.15400
C830        C  0.75963034  0.15409865  0.15116426     0.36900
N831        N  0.75285016  0.13506746  0.18800493    -0.89700
H832        H  0.75280222  0.10724521  0.11391097     0.18000
H833        H  0.77904119  0.23741636  0.11482602     0.18000
N834        N  0.77980972  0.20958430  0.04183158    -0.88700
H835        H  0.74947677  0.10760135  0.18242714     0.35400
H836        H  0.73190579  0.14466694  0.19877158     0.40500
H837        H  0.80211266  0.22013056  0.04500223     0.40100
H838        H  0.76467499  0.23111809  0.03871217     0.35000
C839        C  0.74165522  0.02110384  0.96889875    -0.26800
C840        C  0.75548626  0.03874654  0.00207344    -0.14800
C841        C  0.76855459  0.01777012  0.03329404     0.35800
C842        C  0.76729756  0.98007923  0.03091429    -0.26200
C843        C  0.75345891  0.96250976  0.99776511    -0.15400
C844        C  0.74026263  0.98337772  0.96650122     0.36900
N845        N  0.72484016  0.96636111  0.93286586    -0.89700
H846        H  0.73124838  0.03677486  0.94489674     0.18000
H847        H  0.77766741  0.96447776  0.05503033     0.18000
N848        N  0.78371408  0.03441301  0.06714206    -0.88700
H849        H  0.71684597  0.98554813  0.91227875     0.35400
H850        H  0.70538142  0.95298887  0.94409679     0.40500
H851        H  0.80645198  0.02549006  0.06809900     0.40100
H852        H  0.77275470  0.02568380  0.09350809     0.35000
C853        C  0.50619236  0.83770275  0.64434271    -0.26800
C854        C  0.00086115  0.80229629  0.64544429    -0.14800
C855        C  0.99323989  0.78838633  0.60680790     0.35800
C856        C  0.99483435  0.81083204  0.57293040    -0.26200
C857        C  0.00389758  0.84726996  0.57599591    -0.15400
C858        C  0.50575846  0.85960255  0.60999890     0.36900
N859        N  0.52292645  0.89271331  0.61143191    -0.89700
H860        H  0.51893234  0.84692635  0.67073214     0.18000
H861        H  0.98860932  0.79941842  0.54383257     0.18000
N862        N  0.98324038  0.75190278  0.60077307    -0.88700
H863        H  0.50772713  0.91410918  0.60837942     0.35400
H864        H  0.53863278  0.89316327  0.58761273     0.40500
H865        H  0.96386334  0.74694347  0.61860836     0.40100
H866        H  0.00097128  0.73468191  0.60941187     0.35000
C867        C  0.52131210  0.70621152  0.88386127    -0.26800
C868        C  0.99254005  0.68835670  0.85269670    -0.14800
C869        C  0.98443508  0.65148320  0.85453941     0.35800
C870        C  0.98295787  0.63397270  0.89218262    -0.26200
C871        C  0.98925942  0.65253271  0.92841342    -0.15400
C872        C  0.52437477  0.68822476  0.92093981     0.36900
N873        N  0.54137868  0.70506133  0.95311205    -0.89700
H874        H  0.53141957  0.73286243  0.88065695     0.18000
H875        H  0.97662180  0.60568759  0.89292171     0.18000
N876        N  0.97719595  0.63174241  0.81847830    -0.88700
H877        H  0.53114136  0.72976848  0.95931843     0.35400
H878        H  0.56373411  0.71025176  0.94294122     0.40500
H879        H  0.95478643  0.62146837  0.82109276     0.40100
H880        H  0.99220223  0.60999899  0.81670693     0.35000
C881        C  0.63841851  0.77846966  0.73218530    -0.26800
C882        C  0.65439530  0.74634587  0.73888643    -0.14800
C883        C  0.63761672  0.71362399  0.74164929     0.35800
C884        C  0.60534037  0.71393050  0.74012076    -0.26200
C885        C  0.58946895  0.74638238  0.73607875    -0.15400
C886        C  0.60617441  0.77872116  0.73079943     0.36900
N887        N  0.59043987  0.81182213  0.72357086    -0.89700
H888        H  0.65093017  0.80368990  0.72886911     0.18000
H889        H  0.59265853  0.68881608  0.74344354     0.18000
N890        N  0.65318006  0.67999867  0.74568415    -0.88700
H891        H  0.59784378  0.82217976  0.69582707     0.35400
H892        H  0.59696007  0.83005929  0.74618661     0.40500
H893        H  0.64668208  0.66363872  0.72130951     0.40100
H894        H  0.64562435  0.66753760  0.77225226     0.35000
C895        C  0.85619876  0.77832181  0.74265121    -0.26800
C896        C  0.83952917  0.74597600  0.74718171    -0.14800
C897        C  0.85584192  0.71314005  0.74948868     0.35800
C898        C  0.88802097  0.71357097  0.74791031    -0.26200
C899        C  0.90456908  0.74604850  0.74480738    -0.15400
C900        C  0.88846015  0.77863199  0.74165635     0.36900
N901        N  0.90475768  0.81203986  0.73649464    -0.89700
H902        H  0.84416372  0.80364070  0.74021557     0.18000
H903        H  0.90021213  0.68832804  0.75003994     0.18000
N904        N  0.84054160  0.67888391  0.75252903    -0.88700
H905        H  0.89875402  0.82914224  0.76018075     0.35400
H906        H  0.89732444  0.82372660  0.70940790     0.40500
H907        H  0.82500520  0.67620658  0.72840419     0.40100
H908        H  0.82859722  0.67769986  0.77981958     0.35000
C909        C  0.75373300  0.84301433  0.84799483    -0.26800
C910        C  0.74648523  0.80604050  0.84949936    -0.14800
C911        C  0.74016813  0.79010601  0.88731583     0.35800
C912        C  0.74179667  0.81093706  0.92248975    -0.26200
C913        C  0.74954125  0.84779265  0.92127489    -0.15400
C914        C  0.75537969  0.86393118  0.88331976     0.36900
N915        N  0.76349860  0.90130536  0.88027653    -0.89700
H916        H  0.75864813  0.85582589  0.81926149     0.18000
H917        H  0.73672553  0.79786100  0.95098203     0.18000
N918        N  0.73177957  0.75280003  0.89038948    -0.88700
H919        H  0.74733275  0.91378194  0.86152220     0.35400
H920        H  0.78501014  0.90337921  0.86641179     0.40500
H921        H  0.71013043  0.75097488  0.90392886     0.40100
H922        H  0.74768820  0.74023653  0.90945206     0.35000
C923        C  0.76170605  0.65755356  0.64308204    -0.26800
C924        C  0.74739713  0.69118622  0.64371253    -0.14800
C925        C  0.73363664  0.70458211  0.60815459     0.35800
C926        C  0.73512208  0.68466741  0.57240121    -0.26200
C927        C  0.74982639  0.65123792  0.57146346    -0.15400
C928        C  0.76319243  0.63755984  0.60728818     0.36900
N929        N  0.77907256  0.60396678  0.60732490    -0.89700
H930        H  0.77243721  0.64706496  0.67027154     0.18000
H931        H  0.72428538  0.69529040  0.54536013     0.18000
N932        N  0.71741877  0.73795237  0.60841591    -0.88700
H933        H  0.76853106  0.58697591  0.62846345     0.35400
H934        H  0.80174814  0.60875386  0.61685859     0.40500
H935        H  0.69468629  0.73282414  0.59934134     0.40100
H936        H  0.72753152  0.75506693  0.58704730     0.35000
C937        C  0.48050142  0.20843697  0.61081622    -0.26800
C938        C  0.48732286  0.19046245  0.64715061    -0.14800
C939        C  0.99829091  0.15314471  0.64769758     0.35800
C940        C  0.99951630  0.13587835  0.61030438    -0.26200
C941        C  0.49071322  0.15437019  0.57204295    -0.15400
C942        C  0.48160024  0.19074130  0.57341583     0.36900
N943        N  0.47309825  0.20953861  0.53707045    -0.89700
H944        H  0.47408971  0.23652843  0.61150633     0.18000
H945        H  0.00810625  0.10861602  0.60929897     0.18000
N946        N  0.00846713  0.13356219  0.68256929    -0.88700
H947        H  0.46731536  0.23618450  0.54337113     0.35400
H948        H  0.45320896  0.19709625  0.52551684     0.40500
H949        H  0.99011956  0.13078656  0.70265012     0.40100
H950        H  0.02649422  0.14787387  0.69643796     0.35000
C951        C  0.49971672  0.34294146  0.85035234    -0.26800
C952        C  0.48970644  0.30691441  0.85225032    -0.14800
C953        C  0.98365390  0.29010842  0.89305389     0.35800
C954        C  0.98662827  0.31126238  0.92783222    -0.26200
C955        C  0.49465410  0.34907639  0.92328111    -0.15400
C956        C  0.50242710  0.36401556  0.88535584     0.36900
N957        N  0.51411160  0.40009138  0.88215079    -0.89700
H958        H  0.50631749  0.35468319  0.82162604     0.18000
H959        H  0.97994278  0.29961724  0.95654851     0.18000
N960        N  0.97188339  0.25405755  0.89642781    -0.88700
H961        H  0.49976542  0.41423998  0.86237361     0.35400
H962        H  0.53600985  0.39914074  0.86928483     0.40500
H963        H  0.98626486  0.23985119  0.91610749     0.40100
H964        H  0.95002736  0.25512058  0.90940736     0.35000
C965        C  0.62962650  0.21712481  0.74694834    -0.26800
C966        C  0.64578520  0.24997190  0.75002745    -0.14800
C967        C  0.62914276  0.28234798  0.75129823     0.35800
C968        C  0.59686740  0.28128443  0.75032313    -0.26200
C969        C  0.58074383  0.24840727  0.74844461    -0.15400
C970        C  0.59727952  0.21597515  0.74611581     0.36900
N971        N  0.58121230  0.18208403  0.74228336    -0.89700
H972        H  0.64227440  0.19218870  0.74552319     0.18000
H973        H  0.58435227  0.30632941  0.75168578     0.18000
N974        N  0.64486114  0.31642611  0.75284101    -0.88700
H975        H  0.59676579  0.16083622  0.74114903     0.35400
H976        H  0.56957033  0.18222930  0.71450630     0.40500
H977        H  0.63769637  0.32996031  0.77877087     0.40100
H978        H  0.63807839  0.33148313  0.72764032     0.35000
C979        C  0.84656008  0.21735650  0.74507889    -0.26800
C980        C  0.83123638  0.24941063  0.75437788    -0.14800
C981        C  0.84881132  0.28088763  0.76285436     0.35800
C982        C  0.88112064  0.27939553  0.76200416    -0.26200
C983        C  0.89618686  0.24723525  0.75319283    -0.15400
C984        C  0.87878077  0.21601977  0.74459296     0.36900
N985        N  0.89375530  0.18315564  0.73425914    -0.89700
H986        H  0.83350686  0.19305267  0.73829938     0.18000
H987        H  0.89466398  0.30339535  0.76854045     0.18000
N988        N  0.83396143  0.31431511  0.77181722    -0.88700
H989        H  0.88620938  0.17541945  0.70543267     0.35400
H990        H  0.88671136  0.16331556  0.75476695     0.40500
H991        H  0.82238789  0.32254702  0.74562547     0.40100
H992        H  0.85024576  0.33444583  0.77838908     0.35000
C993        C  0.75004237  0.34281037  0.65177378    -0.26800
C994        C  0.74201944  0.30611819  0.65004227    -0.14800
C995        C  0.73716354  0.28985342  0.61196085     0.35800
C996        C  0.74074236  0.31025247  0.57672161    -0.26200
C997        C  0.74907559  0.34686151  0.57832447    -0.15400
C998        C  0.75374972  0.36322428  0.61644532     0.36900
N999        N  0.76302442  0.40023359  0.61966962    -0.89700
H1000       H  0.75410134  0.35573031  0.68071042     0.18000
H1001       H  0.73676358  0.29714899  0.54787517     0.18000
N1002       N  0.72840027  0.25267153  0.60868088    -0.88700
H1003       H  0.78402653  0.40143543  0.63526707     0.35400
H1004       H  0.74663804  0.41359716  0.63693675     0.40500
H1005       H  0.74497756  0.23960434  0.59143515     0.40100
H1006       H  0.70741137  0.25109971  0.59308416     0.35000
C1007       C  0.75260380  0.13776929  0.89393399    -0.26800
C1008       C  0.74494266  0.15427964  0.93058916    -0.14800
C1009       C  0.73365242  0.18988494  0.93008834     0.35800
C1010       C  0.73139162  0.20838787  0.89313175    -0.26200
C1011       C  0.73964410  0.19200558  0.85661543    -0.15400
C1012       C  0.75020460  0.15621810  0.85718114     0.36900
N1013       N  0.75953829  0.13873954  0.82073912    -0.89700
H1014       H  0.76139801  0.11058554  0.89373369     0.18000
H1015       H  0.72299260  0.23574083  0.89286959     0.18000
N1016       N  0.72426632  0.20709090  0.96685771    -0.88700
H1017       H  0.74629278  0.11525565  0.81730062     0.35400
H1018       H  0.78257474  0.13133801  0.82404792     0.40500
H1019       H  0.70510364  0.19293815  0.97777341     0.40100
H1020       H  0.71702029  0.23337777  0.96119823     0.35000
C1021       C  0.47945100  0.81267259  0.42694656    -0.26800
C1022       C  0.00619053  0.85010440  0.42771966    -0.14800
C1023       C  0.99833907  0.86649513  0.39051527     0.35800
C1024       C  0.99641453  0.84562725  0.35529562    -0.26200
C1025       C  0.00219211  0.80852757  0.35610448    -0.15400
C1026       C  0.48005939  0.79184633  0.39174282     0.36900
N1027       N  0.46998609  0.75502069  0.39331073    -0.89700
H1028       H  0.47170249  0.80005967  0.45469451     0.18000
H1029       H  0.98981704  0.85858203  0.32721465     0.18000
N1030       N  0.99159500  0.90409889  0.38820535    -0.88700
H1031       H  0.44724689  0.75438251  0.40349295     0.35400
H1032       H  0.48361522  0.74158468  0.41455366     0.40500
H1033       H  0.96922966  0.90685714  0.37682617     0.40100
H1034       H  0.00680293  0.91606470  0.36767828     0.35000
C1035       C  0.97895195  0.70900150  0.11587497    -0.26800
C1036       C  0.99243034  0.69361270  0.15033649    -0.14800
C1037       C  0.50205089  0.65495146  0.14862387     0.35800
C1038       C  0.50530153  0.63693397  0.11167057    -0.26200
C1039       C  0.98769250  0.65426459  0.07732788    -0.15400
C1040       C  0.97624185  0.68966167  0.07965341     0.36900
N1041       N  0.96120799  0.70594015  0.04568452    -0.89700
H1042       H  0.96996029  0.73607219  0.11714665     0.18000
H1043       H  0.50339157  0.60784265  0.11159641     0.18000
N1044       N  0.49668680  0.63441902  0.18464533    -0.88700
H1045       H  0.97296203  0.72985692  0.03877900     0.35400
H1046       H  0.93884372  0.71254522  0.05424550     0.40500
H1047       H  0.51503933  0.61674591  0.18855595     0.40100
H1048       H  0.47660939  0.61906009  0.18039978     0.35000
C1049       C  0.63783202  0.78353187  0.25465562    -0.26800
C1050       C  0.65349784  0.75070104  0.25379181    -0.14800
C1051       C  0.63639554  0.71813630  0.25704982     0.35800
C1052       C  0.60428914  0.71916644  0.25967103    -0.26200
C1053       C  0.58861171  0.75197318  0.25863433    -0.15400
C1054       C  0.60564777  0.78443949  0.25688929     0.36900
N1055       N  0.59041473  0.81842400  0.25803054    -0.89700
H1056       H  0.65060031  0.80872405  0.25304177     0.18000
H1057       H  0.59147102  0.69401918  0.26146573     0.18000
N1058       N  0.65088404  0.68370438  0.25874996    -0.88700
H1059       H  0.59632863  0.83279938  0.23195834     0.35400
H1060       H  0.59879581  0.83276065  0.28304308     0.40500
H1061       H  0.66693770  0.68386167  0.28245514     0.40100
H1062       H  0.66223344  0.67922928  0.23149973     0.35000
C1063       C  0.85425341  0.71971091  0.24687756    -0.26800
C1064       C  0.83861668  0.75256329  0.24812419    -0.14800
C1065       C  0.85576379  0.78498431  0.25027254     0.35800
C1066       C  0.88799182  0.78399852  0.25194892    -0.26200
C1067       C  0.90359236  0.75114259  0.25187320    -0.15400
C1068       C  0.88652162  0.71873883  0.24889303     0.36900
N1069       N  0.90185507  0.68486086  0.24683814    -0.89700
H1070       H  0.84139509  0.69459912  0.24489062     0.18000
H1071       H  0.90086323  0.80912167  0.25364415     0.18000
N1072       N  0.84060421  0.81903627  0.24992796    -0.88700
H1073       H  0.89543231  0.67232058  0.21973290     0.35400
H1074       H  0.89401821  0.66878370  0.27070260     0.40500
H1075       H  0.84856731  0.83376162  0.22506255     0.36500
H1076       H  0.84700105  0.83295861  0.27617734     0.35000
C1077       C  0.74209131  0.79071986  0.10827315    -0.26800
C1078       C  0.74723222  0.80882906  0.14491718    -0.14800
C1079       C  0.75418991  0.84605405  0.14402431     0.35800
C1080       C  0.75553157  0.86429125  0.10690057    -0.26200
C1081       C  0.75023397  0.84623999  0.07013050    -0.15400
C1082       C  0.74347321  0.80885167  0.07115444     0.36900
N1083       N  0.73760594  0.78894783  0.03479902    -0.89700
H1084       H  0.73677176  0.76214869  0.10824402     0.18000
H1085       H  0.76099580  0.89281796  0.10706779     0.18000
N1086       N  0.76042499  0.86551461  0.18058971    -0.88700
H1087       H  0.71560263  0.77738672  0.03666471     0.35400
H1088       H  0.75357982  0.76816017  0.03315457     0.40500
H1089       H  0.74471264  0.88654997  0.18252635     0.40100
H1090       H  0.78254172  0.87676023  0.17863136     0.35000
C1091       C  0.73710694  0.65952807  0.35160679    -0.26800
C1092       C  0.74741481  0.69548466  0.35252363    -0.14800
C1093       C  0.75846996  0.71000290  0.38948684     0.35800
C1094       C  0.75920497  0.68839472  0.42398846    -0.26200
C1095       C  0.74900761  0.65236387  0.42316482    -0.15400
C1096       C  0.73765567  0.63793721  0.38622594     0.36900
N1097       N  0.72575497  0.60195788  0.38278951    -0.89700
H1098       H  0.72824642  0.64801361  0.32370790     0.18000
H1099       H  0.76810152  0.70007491  0.45177438     0.18000
N1100       N  0.76973265  0.74626072  0.39307559    -0.88700
H1101       H  0.70836592  0.59818368  0.40413720     0.35400
H1102       H  0.74354729  0.58389661  0.38819909     0.40500
H1103       H  0.75176407  0.76393403  0.38685085     0.40100
H1104       H  0.78749195  0.75028835  0.37231136     0.35000
loop_ 
_geom_bond_atom_site_label_1 
_geom_bond_atom_site_label_2 
_geom_bond_distance 
_geom_bond_site_symmetry_2 
_ccdc_geom_bond_type 
O1            V9   1.891       .  S
O1           C11   1.262       .  A
O2            V9   1.894       .  S
O2           C12   1.262       .  A
O3            V9   1.903       .  S
O3           C13   1.265       .  A
O4            V9   1.903       .  S
O4           C14   1.266       .  A
O5           V10   1.890       .  S
O5           C14   1.261       .  A
O6           V10   1.891       .  S
O6           C13   1.262       .  A
O7           V10   1.894       .  S
O7           C12   1.265       .  A
O8           V10   1.896       .  S
O8           C11   1.265       .  A
V9           V10   2.086       .  T
C11         C526   1.476       .  S
C12         C540   1.481       .  S
C13         C512   1.473       .  S
C14         C498   1.481       .  S
O15         V575   1.895       .  S
O15         C577   1.264       .  A
O16          V23   1.891       .  S
O16          C26   1.262       .  A
O17          V23   1.899   1_455  S
O17          C27   1.264       .  A
O18         V575   1.898       .  S
O18          C28   1.264       .  A
O19         V576   1.896       .  S
O19          C28   1.264       .  A
O20          V24   1.895   1_455  S
O20          C27   1.263       .  A
O21         V576   1.896       .  S
O21         C578   1.265       .  A
O22          V24   1.897       .  S
O22          C25   1.265       .  A
V23         O567   1.894       .  S
V23         O570   1.901       .  S
V23          V24   2.087       .  T
V24         O571   1.895       .  S
V24         O573   1.900       .  S
C25         O567   1.264       .  A
C25        C1025   1.482   1_655  S
C26         O573   1.266       .  A
C26        C1036   1.478       .  S
C27         C501   1.473       .  S
C28         C515   1.479       .  S
O29          V37   1.896       .  S
O29          C39   1.264       .  A
O30          V37   1.895       .  S
O30          C40   1.263       .  A
O31          V37   1.890       .  S
O31          C41   1.263       .  A
O32          V37   1.894       .  S
O32          C42   1.263       .  A
O33          V38   1.894       .  S
O33          C42   1.264       .  A
O34          V38   1.900       .  S
O34          C41   1.265       .  A
O35          V38   1.896       .  S
O35          C40   1.263       .  A
O36          V38   1.897       .  S
O36          C39   1.264       .  A
V37          V38   2.086       .  T
C39         C414   1.479       .  S
C40         C428   1.469       .  S
C41         C459   1.481       .  S
C42         C442   1.481       .  S
O43          V51   1.897       .  S
O43          C53   1.265       .  A
O44          V51   1.893       .  S
O44          C54   1.262       .  A
O45          V51   1.896   1_455  S
O45          C55   1.263       .  A
O46         V603   1.894       .  S
O46          C56   1.263       .  A
O47         V604   1.897       .  S
O47          C56   1.265       .  A
O48          V52   1.897   1_455  S
O48          C55   1.264       .  A
O49          V52   1.894       .  S
O49          C54   1.265       .  A
O50          V52   1.890       .  S
O50          C53   1.262       .  A
V51         O598   1.897       .  S
V51          V52   2.087       .  T
V52         O599   1.898       .  S
C53         C400   1.478       .  S
C54         C386   1.480       .  S
C55         C417   1.471       .  S
C56         C431   1.481       .  S
O57          V65   1.892       .  S
O57          C67   1.262       .  A
O58          V65   1.890       .  S
O58          C68   1.261       .  A
O59          V65   1.901       .  S
O59          C69   1.266       .  A
O60          V65   1.899       .  S
O60          C70   1.266       .  A
O61          V66   1.888       .  S
O61          C70   1.262       .  A
O62          V66   1.884       .  S
O62          C69   1.261       .  A
O63          V66   1.906       .  S
O63          C68   1.267       .  A
O64          V66   1.907       .  S
O64          C67   1.267       .  A
V65          V66   2.085       .  T
C67         C330   1.479       .  S
C68         C344   1.481       .  S
C69         C358   1.479       .  S
C70         C372   1.481       .  S
O71         V631   1.901       .  S
O71         C633   1.265       .  A
O72          V79   1.899       .  S
O72          C82   1.264       .  A
O73          V79   1.895       .  S
O73          C83   1.264       .  A
O74         V631   1.902   1_455  S
O74          C84   1.265       .  A
O75         V632   1.897   1_455  S
O75          C84   1.264       .  A
O76          V80   1.900       .  S
O76          C83   1.264       .  A
O77         V632   1.893       .  S
O77         C634   1.265       .  A
O78          V80   1.890       .  S
O78          C81   1.263       .  A
V79         O623   1.901       .  S
V79         O626   1.900       .  S
V79          V80   2.087       .  T
V80         O627   1.894       .  S
V80         O629   1.896       .  S
C81         O623   1.265       .  A
C81         C302   1.478       .  S
C82         O629   1.264       .  A
C82         C316   1.480       .  S
C83         C347   1.478       .  S
C84         C333   1.481       .  S
C85         C529   1.481       .  S
C85          N86   1.351   1_554  A
C85          N90   1.356       .  A
N86          C87   1.353       .  A
C87         C361   1.487       .  S
C87          N88   1.360       .  A
N88          C89   1.361       .  A
C89         C291   1.489       .  S
C89          N90   1.360   1_556  A
C91         C274   1.479       .  S
C91          N92   1.356       .  A
C91          N96   1.357       .  A
N92          C93   1.356   1_554  A
C93         C456   1.484       .  S
C93          N94   1.358       .  A
N94          C95   1.358   1_556  A
C95         C288   1.482       .  S
C95          N96   1.358       .  A
C97         C246   1.481       .  S
C97          N98   1.356       .  A
C97         N102   1.356       .  A
N98          C99   1.358       .  A
C99         C445   1.490       .  S
C99         N100   1.358       .  A
N100        C101   1.358       .  A
C101        C260   1.482       .  S
C101        N102   1.357       .  A
C103        C375   1.488       .  S
C103        N104   1.358       .  A
C103        N108   1.353       .  A
N104        C105   1.359       .  A
C105        C543   1.491       .  S
C105        N106   1.358       .  A
N106        C107   1.358       .  A
C107        C263   1.476       .  S
C107        N108   1.355       .  A
C109        C470   1.483       .  S
C109        N114   1.356       .  A
C109        N662   1.356       .  A
N110        C111   1.358       .  A
N110        C661   1.355       .  A
C111        C232   1.483       .  S
C111        N112   1.361       .  A
N112        C665   1.360       .  A
C113        C305   1.483       .  S
C113        N114   1.356       .  A
C113        N664   1.358       .  A
C115        C389   1.480       .  S
C115        N116   1.355       .  A
C115        N120   1.356       .  A
N116        C117   1.356       .  A
C117        C235   1.476       .  S
C117        N118   1.358   1_655  A
N118        C119   1.360       .  A
C119        C218   1.485       .  S
C119        N120   1.356   1_455  A
C121        C403   1.479   1_455  S
C121        N122   1.353       .  A
C121        N126   1.357   1_455  A
N122        C123   1.353   1_556  A
C123        C193   1.486       .  S
C123        N124   1.360       .  A
N124        C125   1.363   1_454  A
C125        C207   1.486   1_556  S
C125        N126   1.359       .  A
C127        C319   1.483       .  S
C127        N132   1.358   1_556  A
C127        N680   1.357       .  A
N128        C129   1.360   1_556  A
N128        C679   1.359       .  A
C129        C204   1.483       .  S
C129        N130   1.358       .  A
N130        C683   1.358       .  A
C131        C487   1.491       .  S
C131        N132   1.359       .  A
C131        N682   1.359       .  A
O133        V141   1.901       .  S
O133        C143   1.265       .  A
O134        V141   1.902       .  S
O134        C144   1.265       .  A
O135        V141   1.894       .  S
O135        C145   1.263       .  A
O136        V141   1.896       .  S
O136        C146   1.265       .  A
O137        V142   1.894       .  S
O137        C146   1.263       .  A
O138        V142   1.894       .  S
O138        C145   1.265       .  A
O139        V142   1.895       .  S
O139        C144   1.264       .  A
O140        V142   1.893       .  S
O140        C143   1.263       .  A
V141        V142   2.086       .  T
C143        C176   1.478       .  S
C144        C165   1.479       .  S
C145        C277   1.477       .  S
C146        C249   1.479       .  S
O147        V155   1.896       .  S
O147        C157   1.265       .  A
O148        V155   1.893       .  S
O148        C158   1.263       .  A
O149        V707   1.898       .  S
O149        C159   1.264       .  A
O150        V155   1.898       .  S
O150        C160   1.264       .  A
O151        V156   1.897       .  S
O151        C160   1.264       .  A
O152        V708   1.896       .  S
O152        C159   1.264       .  A
O153        V156   1.898       .  S
O153        C158   1.265       .  A
O154        V156   1.897       .  S
O154        C157   1.263       .  A
V155        O701   1.896   1_455  S
V155        V156   2.086       .  T
V156        O704   1.899   1_455  S
C157        C190   1.481       .  S
C158        C221   1.480       .  S
C159        C179   1.475       .  S
C160        C162   1.476       .  S
C161        C162   1.403       .  A
C161        C166   1.404       .  A
C161        H168   1.084       .  S
C162        C163   1.408       .  A
C163        C164   1.402       .  A
C163        N170   1.433       .  S
C164        C165   1.405       .  A
C164        H169   1.084       .  S
C165        C166   1.411       .  A
C166        N167   1.432       .  S
N167        H171   1.046       .  S
N167        H172   1.046       .  S
N170        H173   1.046       .  S
N170        H174   1.046       .  S
C175        C176   1.404       .  A
C175        C180   1.407       .  A
C175        H182   1.084       .  S
C176        C177   1.410       .  A
C177        C178   1.400       .  A
C177        N184   1.433       .  S
C178        C179   1.401       .  A
C178        H183   1.084       .  S
C179        C180   1.412       .  A
C180        N181   1.438       .  S
N181        H185   1.046       .  S
N181        H186   1.046       .  S
N184        H187   1.046       .  S
N184        H188   1.046       .  S
C189        C190   1.401       .  A
C189        C194   1.398       .  A
C189        H196   1.084   1_455  S
C190        C743   1.412       .  A
C191        C192   1.404       .  A
C191        C742   1.412       .  A
C191        N198   1.432       .  S
C192        C745   1.408       .  A
C192        H197   1.083       .  S
C193        C194   1.416       .  A
C193        C744   1.406       .  A
C194        N195   1.433   1_455  S
N195        H199   1.046       .  S
N195        H200   1.046   1_655  S
N198        H201   1.046       .  S
N198        H202   1.046       .  S
C203        C204   1.403   1_556  A
C203        C208   1.399       .  A
C203        H210   1.084       .  S
C204        C757   1.417   1_655  A
C205        C206   1.398       .  A
C205        C756   1.415       .  A
C205        N212   1.433       .  S
C206        C759   1.406   1_554  A
C206        H211   1.084       .  S
C207        C208   1.420   1_554  A
C207        C758   1.405   1_655  A
C208        N209   1.433       .  S
N209        H213   1.045       .  S
N209        H214   1.044       .  S
N212        H215   1.044       .  S
N212        H216   1.046       .  S
C217        C222   1.401       .  A
C217        C770   1.406       .  A
C217        H224   1.084       .  S
C218        C219   1.420       .  A
C218        C769   1.405   1_455  A
C219        C220   1.397       .  A
C219        N226   1.433       .  S
C220        C221   1.402       .  A
C220        H225   1.084       .  S
C221        C774   1.411       .  A
C222        C773   1.411       .  A
C222        N223   1.433       .  S
N223        H227   1.046       .  S
N223        H228   1.046       .  S
N226        H229   1.045       .  S
N226        H230   1.044       .  S
C231        C232   1.408   1_655  A
C231        C236   1.402   1_565  A
C231        H238   1.083       .  S
C232        C785   1.411       .  A
C233        C234   1.401   1_565  A
C233        C784   1.411       .  A
C233        N240   1.432       .  S
C234        C787   1.408       .  A
C234        H239   1.083       .  S
C235        C236   1.408       .  A
C235        C786   1.403   1_655  A
C236        N237   1.432       .  S
N237        H241   1.046       .  S
N237        H242   1.046       .  S
N240        H243   1.046       .  S
N240        H244   1.046       .  S
C245        C246   1.405       .  A
C245        C250   1.400       .  A
C245        H252   1.084       .  S
C246        C247   1.414       .  A
C247        C248   1.404       .  A
C247        N254   1.438       .  S
C248        C249   1.404       .  A
C248        H253   1.083       .  S
C249        C250   1.411       .  A
C250        N251   1.433       .  S
N251        H255   1.046       .  S
N251        H256   1.046       .  S
N254        H257   1.046       .  S
N254        H258   1.046       .  S
C259        C260   1.406       .  A
C259        C264   1.400       .  A
C259        H266   1.084       .  S
C260        C261   1.412       .  A
C261        C262   1.399       .  A
C261        N268   1.431       .  S
C262        C263   1.402       .  A
C262        H267   1.084       .  S
C263        C264   1.408       .  A
C264        N265   1.431       .  S
N265        H269   1.046       .  S
N265        H270   1.046       .  S
N268        H271   1.046       .  S
N268        H272   1.046       .  S
C273        C274   1.404       .  A
C273        C278   1.404       .  A
C273        H280   1.083       .  S
C274        C275   1.413       .  A
C275        C276   1.401       .  A
C275        N282   1.438       .  S
C276        C277   1.403       .  A
C276        H281   1.084       .  S
C277        C278   1.413       .  A
C278        N279   1.438       .  S
N279        H283   1.046       .  S
N279        H284   1.046       .  S
N282        H285   1.046       .  S
N282        H286   1.046       .  S
C287        C288   1.404   1_556  A
C287        C292   1.403   1_545  A
C287        H294   1.084       .  S
C288        C289   1.410       .  A
C289        C290   1.400   1_545  A
C289        N296   1.433       .  S
C290        C291   1.407   1_554  A
C290        H295   1.083       .  S
C291        C292   1.414       .  A
C292        N293   1.431       .  S
N293        H297   1.046       .  S
N293        H298   1.046       .  S
N296        H299   1.046       .  S
N296        H300   1.046       .  S
C301        C306   1.397       .  A
C301        C854   1.405       .  A
C301        H308   1.084       .  S
C302        C303   1.414       .  A
C302        C853   1.404       .  A
C303        C304   1.398       .  A
C303        N310   1.433       .  S
C304        C305   1.407       .  A
C304        H309   1.084       .  S
C305        C858   1.416       .  A
C306        C857   1.418       .  A
C306        N307   1.430       .  S
N307        H311   1.044       .  S
N307        H312   1.045       .  S
N310        H313   1.046       .  S
N310        H314   1.045       .  S
C315        C320   1.399       .  A
C315        C868   1.402       .  A
C315        H322   1.084   1_655  S
C316        C317   1.410       .  A
C316        C867   1.404       .  A
C317        C318   1.403       .  A
C317        N324   1.432       .  S
C318        C319   1.405       .  A
C318        H323   1.084       .  S
C319        C872   1.411       .  A
C320        C871   1.415       .  A
C320        N321   1.432   1_655  S
N321        H325   1.046   1_455  S
N321        H326   1.046       .  S
N324        H327   1.046       .  S
N324        H328   1.046       .  S
C329        C330   1.402       .  A
C329        C334   1.404       .  A
C329        H336   1.084       .  S
C330        C331   1.411       .  A
C331        C332   1.403       .  A
C331        N338   1.433       .  S
C332        C333   1.403       .  A
C332        H337   1.084       .  S
C333        C334   1.413       .  A
C334        N335   1.432       .  S
N335        H339   1.046       .  S
N335        H340   1.046       .  S
N338        H341   1.046       .  S
N338        H342   1.046       .  S
C343        C344   1.405       .  A
C343        C348   1.404       .  A
C343        H350   1.084       .  S
C344        C345   1.418       .  A
C345        C346   1.397       .  A
C345        N352   1.433       .  S
C346        C347   1.402       .  A
C346        H351   1.084       .  S
C347        C348   1.410       .  A
C348        N349   1.432       .  S
N349        H353   1.046       .  S
N349        H354   1.046       .  S
N352        H355   1.046       .  S
N352        H356   1.045       .  S
C357        C358   1.406       .  A
C357        C362   1.400       .  A
C357        H364   1.084       .  S
C358        C359   1.408       .  A
C359        C360   1.399       .  A
C359        N366   1.433       .  S
C360        C361   1.409       .  A
C360        H365   1.083       .  S
C361        C362   1.412       .  A
C362        N363   1.431       .  S
N363        H367   1.046       .  S
N363        H368   1.046       .  S
N366        H369   1.046       .  S
N366        H370   1.046       .  S
C371        C372   1.403       .  A
C371        C376   1.401       .  A
C371        H378   1.084       .  S
C372        C373   1.413       .  A
C373        C374   1.400       .  A
C373        N380   1.433       .  S
C374        C375   1.405       .  A
C374        H379   1.083       .  S
C375        C376   1.416       .  A
C376        N377   1.433       .  S
N377        H381   1.046       .  S
N377        H382   1.046       .  S
N380        H383   1.046       .  S
N380        H384   1.046       .  S
C385        C386   1.405       .  A
C385        C390   1.403       .  A
C385        H392   1.084       .  S
C386        C939   1.417       .  A
C387        C388   1.396       .  A
C387        C938   1.418       .  A
C387        N394   1.433       .  S
C388        C941   1.404       .  A
C388        H393   1.084       .  S
C389        C390   1.413       .  A
C389        C940   1.404       .  A
C390        N391   1.438       .  S
N391        H395   1.046       .  S
N391        H396   1.046       .  S
N394        H397   1.045       .  S
N394        H398   1.045       .  S
C399        C400   1.406   1_455  A
C399        C404   1.402       .  A
C399        H406   1.084       .  S
C400        C953   1.409       .  A
C401        C402   1.401       .  A
C401        C952   1.410       .  A
C401        N408   1.433       .  S
C402        C955   1.406       .  A
C402        H407   1.084       .  S
C403        C404   1.409   1_655  A
C403        C954   1.405       .  A
C404        N405   1.432       .  S
N405        H409   1.046       .  S
N405        H410   1.046       .  S
N408        H411   1.046       .  S
N408        H412   1.046       .  S
C413        C414   1.405       .  A
C413        C418   1.401       .  A
C413        H420   1.084       .  S
C414        C415   1.412       .  A
C415        C416   1.402       .  A
C415        N422   1.432       .  S
C416        C417   1.401       .  A
C416        H421   1.084       .  S
C417        C418   1.407       .  A
C418        N419   1.432       .  S
N419        H423   1.045       .  S
N419        H424   1.046       .  S
N422        H425   1.046       .  S
N422        H426   1.046       .  S
C427        C428   1.399       .  A
C427        C432   1.400       .  A
C427        H434   1.084       .  S
C428        C429   1.409       .  A
C429        C430   1.404       .  A
C429        N436   1.438       .  S
C430        C431   1.406       .  A
C430        H435   1.083       .  S
C431        C432   1.413       .  A
C432        N433   1.433       .  S
N433        H437   1.046       .  S
N433        H438   1.046       .  S
N436        H439   1.046       .  S
N436        H440   1.046       .  S
C441        C442   1.403       .  A
C441        C446   1.400       .  A
C441        H448   1.084       .  S
C442        C443   1.411       .  A
C443        C444   1.400       .  A
C443        N450   1.433       .  S
C444        C445   1.407       .  A
C444        H449   1.083       .  S
C445        C446   1.415       .  A
C446        N447   1.430       .  S
N447        H451   1.046       .  S
N447        H452   1.046       .  S
N450        H453   1.046       .  S
N450        H454   1.046       .  S
C455        C456   1.404       .  A
C455        C460   1.399       .  A
C455        H462   1.084       .  S
C456        C457   1.414       .  A
C457        C458   1.403       .  A
C457        N464   1.433       .  S
C458        C459   1.404       .  A
C458        H463   1.084       .  S
C459        C460   1.412       .  A
C460        N461   1.433       .  S
N461        H465   1.046       .  S
N461        H466   1.046       .  S
N464        H467   1.046       .  S
N464        H468   1.046       .  S
C469        C474   1.403       .  A
C469       C1022   1.406       .  A
C469        H476   1.083       .  S
C470        C471   1.414       .  A
C470       C1021   1.406       .  A
C471        C472   1.401       .  A
C471        N478   1.432       .  S
C472        C473   1.404       .  A
C472        H477   1.084       .  S
C473        C577   1.478       .  S
C473       C1026   1.410       .  A
C474       C1025   1.414       .  A
C474        N475   1.438       .  S
N475        H479   1.046       .  S
N475        H480   1.046       .  S
N478        H481   1.046       .  S
N478        H482   1.046       .  S
C483        C484   1.403       .  A
C483        C488   1.400       .  A
C483        H490   1.084       .  S
C484        C578   1.484       .  S
C484       C1037   1.412       .  A
C485        C486   1.402       .  A
C485       C1036   1.411   1_455  A
C485        N492   1.433       .  S
C486       C1039   1.405   1_455  A
C486        H491   1.083       .  S
C487        C488   1.415       .  A
C487       C1038   1.408       .  A
C488        N489   1.431       .  S
N489        H493   1.046       .  S
N489        H494   1.046       .  S
N492        H495   1.046       .  S
N492        H496   1.046       .  S
C497        C498   1.404       .  A
C497        C502   1.402       .  A
C497        H504   1.084       .  S
C498        C499   1.420       .  A
C499        C500   1.398       .  A
C499        N506   1.433       .  S
C500        C501   1.400       .  A
C500        H505   1.084       .  S
C501        C502   1.408       .  A
C502        N503   1.433       .  S
N503        H507   1.046       .  S
N503        H508   1.046       .  S
N506        H509   1.046       .  S
N506        H510   1.045       .  S
C511        C512   1.403       .  A
C511        C516   1.401       .  A
C511        H518   1.084       .  S
C512        C513   1.407       .  A
C513        C514   1.403       .  A
C513        N520   1.432       .  S
C514        C515   1.406       .  A
C514        H519   1.084       .  S
C515        C516   1.411       .  A
C516        N517   1.432       .  S
N517        H521   1.046       .  S
N517        H522   1.046       .  S
N520        H523   1.046       .  S
N520        H524   1.046       .  S
C525        C526   1.401       .  A
C525        C530   1.398       .  A
C525        H532   1.084       .  S
C526        C527   1.411       .  A
C527        C528   1.401       .  A
C527        N534   1.433       .  S
C528        C529   1.404       .  A
C528        H533   1.084       .  S
C529        C530   1.415       .  A
C530        N531   1.433       .  S
N531        H535   1.046       .  S
N531        H536   1.046       .  S
N534        H537   1.046       .  S
N534        H538   1.046       .  S
C539        C540   1.402       .  A
C539        C544   1.395       .  A
C539        H546   1.084       .  S
C540        C541   1.416       .  A
C541        C542   1.397       .  A
C541        N548   1.433       .  S
C542        C543   1.408       .  A
C542        H547   1.084       .  S
C543        C544   1.420       .  A
C544        N545   1.430       .  S
N545        H549   1.045       .  S
N545        H550   1.045       .  S
N548        H551   1.046       .  S
N548        H552   1.045       .  S
O553        V561   1.894       .  S
O553        C563   1.263       .  A
O554        V561   1.893       .  S
O554        C564   1.263       .  A
O555        V561   1.894       .  S
O555        C565   1.263       .  A
O556        V561   1.896       .  S
O556        C566   1.264       .  A
O557        V562   1.899       .  S
O557        C566   1.264       .  A
O558        V562   1.901       .  S
O558        C565   1.265       .  A
O559        V562   1.894       .  S
O559        C564   1.264       .  A
O560        V562   1.898       .  S
O560        C563   1.266       .  A
V561        V562   2.085       .  T
C563       C1078   1.483       .  S
C564       C1092   1.479       .  S
C565       C1064   1.478       .  S
C566       C1050   1.478       .  S
O568        V575   1.896       .  S
O568        C578   1.263       .  A
O569        V575   1.899       .  S
O569        C579   1.265       .  A
O570        C580   1.265       .  A
O571        C580   1.263       .  A
O572        V576   1.894       .  S
O572        C579   1.263       .  A
O574        V576   1.893       .  S
O574        C577   1.263       .  A
V575        V576   2.086       .  T
C579       C1053   1.477       .  S
C580       C1067   1.477       .  S
O581        V589   1.898       .  S
O581        C591   1.265       .  A
O582        V589   1.898       .  S
O582        C592   1.265       .  A
O583        V589   1.890       .  S
O583        C593   1.262       .  A
O584        V589   1.890       .  S
O584        C594   1.263       .  A
O585        V590   1.896       .  S
O585        C594   1.264       .  A
O586        V590   1.898       .  S
O586        C593   1.265       .  A
O587        V590   1.898       .  S
O587        C592   1.264       .  A
O588        V590   1.898       .  S
O588        C591   1.264       .  A
V589        V590   2.085       .  T
C591        C966   1.480       .  S
C592        C980   1.483       .  S
C593       C1011   1.479       .  S
C594        C994   1.479       .  S
O595        V603   1.897       .  S
O595        C605   1.264       .  A
O596        V603   1.894       .  S
O596        C606   1.262       .  A
O597        V603   1.897       .  S
O597        C607   1.264       .  A
O598        C608   1.263       .  A
O599        C608   1.264       .  A
O600        V604   1.899       .  S
O600        C607   1.264       .  A
O601        V604   1.895       .  S
O601        C606   1.265       .  A
O602        V604   1.894       .  S
O602        C605   1.264       .  A
V603        V604   2.085       .  T
C605        C952   1.480       .  S
C606        C938   1.483       .  S
C607        C969   1.477       .  S
C608        C983   1.471       .  S
O609        V617   1.895       .  S
O609        C619   1.263       .  A
O610        V617   1.894       .  S
O610        C620   1.263       .  A
O611        V617   1.898       .  S
O611        C621   1.265       .  A
O612        V617   1.894       .  S
O612        C622   1.263       .  A
O613        V618   1.890       .  S
O613        C622   1.263       .  A
O614        V618   1.897       .  S
O614        C621   1.264       .  A
O615        V618   1.901       .  S
O615        C620   1.265       .  A
O616        V618   1.899       .  S
O616        C619   1.265       .  A
V617        V618   2.086       .  T
C619        C882   1.480       .  S
C620        C896   1.481       .  S
C621        C910   1.485       .  S
C622        C924   1.470       .  S
O624        V631   1.901       .  S
O624        C634   1.265       .  A
O625        V631   1.900       .  S
O625        C635   1.264       .  A
O626        C636   1.264       .  A
O627        C636   1.263       .  A
O628        V632   1.896       .  S
O628        C635   1.263       .  A
O630        V632   1.889       .  S
O630        C633   1.263       .  A
V631        V632   2.086       .  T
C633        C854   1.484   1_655  S
C634        C868   1.483       .  S
C635        C899   1.475       .  S
C636        C885   1.473       .  S
C637       C1081   1.490       .  S
C637        N638   1.355   1_554  A
C637        N642   1.359       .  A
N638        C639   1.356       .  A
C639        C913   1.489       .  S
C639        N640   1.358       .  A
N640        C641   1.360       .  A
C641        C843   1.484       .  S
C641        N642   1.360   1_556  A
C643        C826   1.484       .  S
C643        N644   1.355       .  A
C643        N648   1.360       .  A
N644        C645   1.354   1_554  A
C645       C1008   1.481       .  S
C645        N646   1.357       .  A
N646        C647   1.358   1_556  A
C647        C840   1.488       .  S
C647        N648   1.360       .  A
C649        C798   1.485       .  S
C649        N650   1.355       .  A
C649        N654   1.357       .  A
N650        C651   1.356       .  A
C651        C997   1.481       .  S
C651        N652   1.355       .  A
N652        C653   1.357       .  A
C653        C812   1.480       .  S
C653        N654   1.358       .  A
C655        C927   1.476       .  S
C655        N656   1.355       .  A
C655        N660   1.353       .  A
N656        C657   1.357       .  A
C657       C1095   1.483       .  S
C657        N658   1.357       .  A
N658        C659   1.358       .  A
C659        C815   1.476       .  S
C659        N660   1.356       .  A
C661       C1022   1.486       .  S
C661        N666   1.355       .  A
N662        C663   1.358       .  A
C663        C784   1.486       .  S
C663        N664   1.359       .  A
C665        C857   1.492       .  S
C665        N666   1.357       .  A
C667        C941   1.482       .  S
C667        N668   1.355       .  A
C667        N672   1.356       .  A
N668        C669   1.357       .  A
C669        C787   1.490       .  S
C669        N670   1.359       .  A
N670        C671   1.360       .  A
C671        C770   1.488       .  S
C671        N672   1.356       .  A
C673        C955   1.484       .  S
C673        N674   1.355       .  A
C673        N678   1.357       .  A
N674        C675   1.355   1_556  A
C675        C745   1.492       .  S
C675        N676   1.359       .  A
N676        C677   1.361   1_554  A
C677        C759   1.486       .  S
C677        N678   1.358       .  A
C679        C871   1.489       .  S
C679        N684   1.356   1_556  A
N680        C681   1.358   1_556  A
C681        C756   1.481       .  S
C681        N682   1.357       .  A
C683       C1039   1.483       .  S
C683        N684   1.355       .  A
O685        V693   1.900       .  S
O685        C695   1.265       .  A
O686        V693   1.901       .  S
O686        C696   1.265       .  A
O687        V693   1.892       .  S
O687        C697   1.262       .  A
O688        V693   1.893       .  S
O688        C698   1.264       .  A
O689        V694   1.895       .  S
O689        C698   1.263       .  A
O690        V694   1.898       .  S
O690        C697   1.266       .  A
O691        V694   1.893       .  S
O691        C696   1.263       .  A
O692        V694   1.893       .  S
O692        C695   1.263       .  A
V693        V694   2.086       .  T
C695        C728   1.475       .  S
C696        C717   1.477       .  S
C697        C829   1.482       .  S
C698        C801   1.480       .  S
O699        V707   1.895       .  S
O699        C709   1.265       .  A
O700        V707   1.892       .  S
O700        C710   1.262       .  A
O701        C711   1.264       .  A
O702        V707   1.897       .  S
O702        C712   1.264       .  A
O703        V708   1.896       .  S
O703        C712   1.263       .  A
O704        C711   1.265       .  A
O705        V708   1.900       .  S
O705        C710   1.266       .  A
O706        V708   1.900       .  S
O706        C709   1.264       .  A
V707        V708   2.086       .  T
C709        C742   1.486       .  S
C710        C773   1.481       .  S
C711        C731   1.477       .  S
C712        C714   1.474       .  S
C713        C714   1.403       .  A
C713        C718   1.402       .  A
C713        H720   1.084       .  S
C714        C715   1.408       .  A
C715        C716   1.402       .  A
C715        N722   1.433       .  S
C716        C717   1.405       .  A
C716        H721   1.084       .  S
C717        C718   1.410       .  A
C718        N719   1.432       .  S
N719        H723   1.046       .  S
N719        H724   1.046       .  S
N722        H725   1.046       .  S
N722        H726   1.046       .  S
C727        C728   1.402       .  A
C727        C732   1.403       .  A
C727        H734   1.084       .  S
C728        C729   1.410       .  A
C729        C730   1.402       .  A
C729        N736   1.433       .  S
C730        C731   1.403       .  A
C730        H735   1.084       .  S
C731        C732   1.411       .  A
C732        N733   1.433       .  S
N733        H737   1.046       .  S
N733        H738   1.046       .  S
N736        H739   1.046       .  S
N736        H740   1.046       .  S
C741        C742   1.403       .  A
C741        C746   1.400       .  A
C741        H748   1.084       .  S
C743        C744   1.405       .  A
C743        N750   1.432       .  S
C744        H749   1.084       .  S
C745        C746   1.417       .  A
C746        N747   1.433       .  S
N747        H751   1.046       .  S
N747        H752   1.046       .  S
N750        H753   1.046       .  S
N750        H754   1.046       .  S
C755        C756   1.403   1_556  A
C755        C760   1.397       .  A
C755        H762   1.084       .  S
C757        C758   1.398       .  A
C757        N764   1.432       .  S
C758        H763   1.084       .  S
C759        C760   1.419       .  A
C760        N761   1.432       .  S
N761        H765   1.045       .  S
N761        H766   1.043       .  S
N764        H767   1.044       .  S
N764        H768   1.046       .  S
C769        C774   1.401   1_655  A
C769        H776   1.084       .  S
C770        C771   1.421       .  A
C771        C772   1.397       .  A
C771        N778   1.432       .  S
C772        C773   1.402       .  A
C772        H777   1.084       .  S
C774        N775   1.433   1_455  S
N775        H779   1.046       .  S
N775        H780   1.046   1_655  S
N778        H781   1.046       .  S
N778        H782   1.042       .  S
C783        C784   1.406       .  A
C783        C788   1.402   1_565  A
C783        H790   1.083       .  S
C785        C786   1.400   1_565  A
C785        N792   1.430       .  S
C786        H791   1.084       .  S
C787        C788   1.414       .  A
C788        N789   1.432       .  S
N789        H793   1.046       .  S
N789        H794   1.046       .  S
N792        H795   1.046       .  S
N792        H796   1.046       .  S
C797        C798   1.406       .  A
C797        C802   1.400       .  A
C797        H804   1.083       .  S
C798        C799   1.417       .  A
C799        C800   1.403       .  A
C799        N806   1.438       .  S
C800        C801   1.404       .  A
C800        H805   1.083       .  S
C801        C802   1.410       .  A
C802        N803   1.433       .  S
N803        H807   1.046       .  S
N803        H808   1.046       .  S
N806        H809   1.046       .  S
N806        H810   1.046       .  S
C811        C812   1.406       .  A
C811        C816   1.400       .  A
C811        H818   1.084       .  S
C812        C813   1.412       .  A
C813        C814   1.398       .  A
C813        N820   1.433       .  S
C814        C815   1.403       .  A
C814        H819   1.084       .  S
C815        C816   1.409       .  A
C816        N817   1.432       .  S
N817        H821   1.046       .  S
N817        H822   1.046       .  S
N820        H823   1.046       .  S
N820        H824   1.046       .  S
C825        C826   1.405       .  A
C825        C830   1.405       .  A
C825        H832   1.083       .  S
C826        C827   1.413       .  A
C827        C828   1.399       .  A
C827        N834   1.433       .  S
C828        C829   1.403       .  A
C828        H833   1.084       .  S
C829        C830   1.417       .  A
C830        N831   1.438       .  S
N831        H835   1.046       .  S
N831        H836   1.046       .  S
N834        H837   1.046       .  S
N834        H838   1.046       .  S
C839        C840   1.407   1_556  A
C839        C844   1.404   1_545  A
C839        H846   1.083       .  S
C840        C841   1.413       .  A
C841        C842   1.403   1_545  A
C841        N848   1.432       .  S
C842        C843   1.405   1_554  A
C842        H847   1.084       .  S
C843        C844   1.414       .  A
C844        N845   1.438       .  S
N845        H849   1.046       .  S
N845        H850   1.046       .  S
N848        H851   1.046       .  S
N848        H852   1.046       .  S
C853        C858   1.396       .  A
C853        H860   1.084       .  S
C854        C855   1.415   1_455  A
C855        C856   1.397       .  A
C855        N862   1.432       .  S
C856        C857   1.409   1_655  A
C856        H861   1.084       .  S
C858        N859   1.432       .  S
N859        H863   1.043       .  S
N859        H864   1.045       .  S
N862        H865   1.045       .  S
N862        H866   1.045   1_655  S
C867        C872   1.402       .  A
C867        H874   1.084       .  S
C868        C869   1.412       .  A
C869        C870   1.405       .  A
C869        N876   1.432       .  S
C870        C871   1.407       .  A
C870        H875   1.084       .  S
C872        N873   1.432       .  S
N873        H877   1.046       .  S
N873        H878   1.046       .  S
N876        H879   1.046       .  S
N876        H880   1.046       .  S
C881        C882   1.404       .  A
C881        C886   1.401       .  A
C881        H888   1.084       .  S
C882        C883   1.413       .  A
C883        C884   1.403       .  A
C883        N890   1.433       .  S
C884        C885   1.401       .  A
C884        H889   1.084       .  S
C885        C886   1.408       .  A
C886        N887   1.433       .  S
N887        H891   1.046       .  S
N887        H892   1.045       .  S
N890        H893   1.046       .  S
N890        H894   1.046       .  S
C895        C896   1.404       .  A
C895        C900   1.402       .  A
C895        H902   1.084       .  S
C896        C897   1.419       .  A
C897        C898   1.399       .  A
C897        N904   1.433       .  S
C898        C899   1.401       .  A
C898        H903   1.084       .  S
C899        C900   1.408       .  A
C900        N901   1.432       .  S
N901        H905   1.046       .  S
N901        H906   1.046       .  S
N904        H907   1.046       .  S
N904        H908   1.045       .  S
C909        C910   1.407       .  A
C909        C914   1.405       .  A
C909        H916   1.084       .  S
C910        C911   1.410       .  A
C911        C912   1.399       .  A
C911        N918   1.433       .  S
C912        C913   1.407       .  A
C912        H917   1.082       .  S
C913        C914   1.413       .  A
C914        N915   1.432       .  S
N915        H919   1.046       .  S
N915        H920   1.046       .  S
N918        H921   1.046       .  S
N918        H922   1.046       .  S
C923        C924   1.402       .  A
C923        C928   1.401       .  A
C923        H930   1.084       .  S
C924        C925   1.408       .  A
C925        C926   1.398       .  A
C925        N932   1.433       .  S
C926        C927   1.403       .  A
C926        H931   1.084       .  S
C927        C928   1.412       .  A
C928        N929   1.433       .  S
N929        H933   1.046       .  S
N929        H934   1.046       .  S
N932        H935   1.046       .  S
N932        H936   1.046       .  S
C937        C938   1.405       .  A
C937        C942   1.403       .  A
C937        H944   1.083       .  S
C939        C940   1.395       .  A
C939        N946   1.433   1_655  S
C940        H945   1.084   1_655  S
C941        C942   1.413       .  A
C942        N943   1.437       .  S
N943        H947   1.046       .  S
N943        H948   1.046       .  S
N946        H949   1.045   1_455  S
N946        H950   1.045       .  S
C951        C952   1.404       .  A
C951        C956   1.402       .  A
C951        H958   1.084       .  S
C953        C954   1.398       .  A
C953        N960   1.433       .  S
C954        H959   1.083       .  S
C955        C956   1.412       .  A
C956        N957   1.432       .  S
N957        H961   1.046       .  S
N957        H962   1.046       .  S
N960        H963   1.046       .  S
N960        H964   1.046       .  S
C965        C966   1.404       .  A
C965        C970   1.405       .  A
C965        H972   1.084       .  S
C966        C967   1.411       .  A
C967        C968   1.402       .  A
C967        N974   1.432       .  S
C968        C969   1.402       .  A
C968        H973   1.084       .  S
C969        C970   1.412       .  A
C970        N971   1.438       .  S
N971        H975   1.046       .  S
N971        H976   1.046       .  S
N974        H977   1.046       .  S
N974        H978   1.046       .  S
C979        C980   1.406       .  A
C979        C984   1.401       .  A
C979        H986   1.084       .  S
C980        C981   1.417       .  A
C981        C982   1.406       .  A
C981        N988   1.438       .  S
C982        C983   1.401       .  A
C982        H987   1.084       .  S
C983        C984   1.406       .  A
C984        N985   1.433       .  S
N985        H989   1.046       .  S
N985        H990   1.046       .  S
N988        H991   1.046       .  S
N988        H992   1.046       .  S
C993        C994   1.404       .  A
C993        C998   1.401       .  A
C993       H1000   1.084       .  S
C994        C995   1.411       .  A
C995        C996   1.398       .  A
C995       N1002   1.433       .  S
C996        C997   1.404       .  A
C996       H1001   1.084       .  S
C997        C998   1.413       .  A
C998        N999   1.432       .  S
N999       H1003   1.046       .  S
N999       H1004   1.046       .  S
N1002      H1005   1.046       .  S
N1002      H1006   1.046       .  S
C1007      C1008   1.403       .  A
C1007      C1012   1.398       .  A
C1007      H1014   1.084       .  S
C1008      C1009   1.416       .  A
C1009      C1010   1.405       .  A
C1009      N1016   1.438       .  S
C1010      C1011   1.404       .  A
C1010      H1015   1.084       .  S
C1011      C1012   1.411       .  A
C1012      N1013   1.433       .  S
N1013      H1017   1.046       .  S
N1013      H1018   1.046       .  S
N1016      H1019   1.046       .  S
N1016      H1020   1.046       .  S
C1021      C1026   1.399       .  A
C1021      H1028   1.084       .  S
C1022      C1023   1.413   1_455  A
C1023      C1024   1.402       .  A
C1023      N1030   1.432       .  S
C1024      C1025   1.404   1_655  A
C1024      H1029   1.084       .  S
C1026      N1027   1.433       .  S
N1027      H1031   1.046       .  S
N1027      H1032   1.046       .  S
N1030      H1033   1.046       .  S
N1030      H1034   1.046   1_655  S
C1035      C1036   1.402       .  A
C1035      C1040   1.401       .  A
C1035      H1042   1.084       .  S
C1037      C1038   1.403       .  A
C1037      N1044   1.433       .  S
C1038      H1043   1.083       .  S
C1039      C1040   1.413       .  A
C1040      N1041   1.432       .  S
N1041      H1045   1.046       .  S
N1041      H1046   1.046       .  S
N1044      H1047   1.046       .  S
N1044      H1048   1.046       .  S
C1049      C1050   1.404       .  A
C1049      C1054   1.401       .  A
C1049      H1056   1.084       .  S
C1050      C1051   1.417       .  A
C1051      C1052   1.399       .  A
C1051      N1058   1.433       .  S
C1052      C1053   1.403       .  A
C1052      H1057   1.084       .  S
C1053      C1054   1.409       .  A
C1054      N1055   1.433       .  S
N1055      H1059   1.046       .  S
N1055      H1060   1.046       .  S
N1058      H1061   1.046       .  S
N1058      H1062   1.044       .  S
C1063      C1064   1.404       .  A
C1063      C1068   1.404       .  A
C1063      H1070   1.084       .  S
C1064      C1065   1.411       .  A
C1065      C1066   1.402       .  A
C1065      N1072   1.433       .  S
C1066      C1067   1.403       .  A
C1066      H1071   1.084       .  S
C1067      C1068   1.410       .  A
C1068      N1069   1.432       .  S
N1069      H1073   1.046       .  S
N1069      H1074   1.046       .  S
N1072      H1075   1.046       .  S
N1072      H1076   1.046       .  S
C1077      C1078   1.402       .  A
C1077      C1082   1.401       .  A
C1077      H1084   1.084       .  S
C1078      C1079   1.413       .  A
C1079      C1080   1.403       .  A
C1079      N1086   1.433       .  S
C1080      C1081   1.406       .  A
C1080      H1085   1.083       .  S
C1081      C1082   1.417       .  A
C1082      N1083   1.432       .  S
N1083      H1087   1.046       .  S
N1083      H1088   1.046       .  S
N1086      H1089   1.046       .  S
N1086      H1090   1.046       .  S
C1091      C1092   1.404       .  A
C1091      C1096   1.397       .  A
C1091      H1098   1.084       .  S
C1092      C1093   1.416       .  A
C1093      C1094   1.395       .  A
C1093      N1100   1.433       .  S
C1094      C1095   1.405       .  A
C1094      H1099   1.084       .  S
C1095      C1096   1.418       .  A
C1096      N1097   1.432       .  S
N1097      H1101   1.045       .  S
N1097      H1102   1.044       .  S
N1100      H1103   1.045       .  S
N1100      H1104   1.046       .  S
