geometry optimzed in LAMMPS
_audit_creation_date              2020-12-01 
_audit_creation_method            'lammps2cif' 
_symmetry_space_group_name_H-M    'P1' 
_symmetry_Int_Tables_number       1 
_symmetry_cell_setting            triclinic 
loop_ 
_symmetry_equiv_pos_as_xyz 
  x,y,z 
_cell_length_a                    40.77877063 
_cell_length_b                    35.57818725634706 
_cell_length_c                    27.319151686086848 
_cell_angle_alpha                 97.70024141348028 
_cell_angle_beta                  92.08415642413465 
_cell_angle_gamma                 125.22654139113261 
loop_ 
_atom_site_label 
_atom_site_type_symbol 
_atom_site_fract_x 
_atom_site_fract_y 
_atom_site_fract_z 
_atom_site_charge 
C1          C  0.35536462  0.15091573  0.98802125     0.04700
C2          C  0.31293561  0.12750624  0.98129987    -0.11500
C3          C  0.29597331  0.15245491  0.98830747     0.02200
C4          C  0.32120779  0.20134968  0.99447204    -0.10000
C5          C  0.36334666  0.22557506  0.99819940     0.04600
C6          C  0.38021055  0.20041378  0.99677800    -0.09400
H7          H  0.29251771  0.08968061  0.97317153     0.10200
H8          H  0.30836957  0.22083186  0.00033003     0.07800
H9          H  0.41280203  0.22001167  0.00445995     0.07600
C10         C  0.36435491  0.15828046  0.24880178     0.04700
C11         C  0.32227985  0.13366117  0.24776205    -0.11500
C12         C  0.30387180  0.15691944  0.24663612     0.02200
C13         C  0.32778391  0.20478608  0.24494928    -0.10000
C14         C  0.37007035  0.23014025  0.24745662     0.04600
C15         C  0.38807551  0.20639822  0.24818600    -0.09400
H16         H  0.30419636  0.09695928  0.25063732     0.10200
H17         H  0.31383616  0.22312731  0.24573802     0.07800
H18         H  0.42081124  0.22596178  0.25253717     0.07600
C19         C  0.16927392  0.38942606  0.16250162     0.04700
C20         C  0.14762110  0.34087239  0.15707426    -0.11500
C21         C  0.16739327  0.31929547  0.15431376     0.02200
C22         C  0.20990355  0.34729411  0.15702208    -0.10000
C23         C  0.23322283  0.39693071  0.16550775     0.04600
C24         C  0.21194597  0.41743506  0.17013623    -0.09200
H25         H  0.11476221  0.31947397  0.15147749     0.10200
H26         H  0.22426059  0.32972675  0.15071221     0.07800
H27         H  0.22785400  0.45494457  0.17740854     0.07600
C28         C  0.17501258  0.39234020  0.38768373     0.04700
C29         C  0.21610717  0.41359479  0.38436048    -0.11500
C30         C  0.23212257  0.38777946  0.38613524     0.02200
C31         C  0.20679766  0.34098292  0.39184080    -0.10000
C32         C  0.16550621  0.31938693  0.39374681     0.04600
C33         C  0.15005931  0.34564868  0.39334395    -0.09400
H34         H  0.23484691  0.44909047  0.37747380     0.10200
H35         H  0.21872443  0.32051934  0.39163932     0.07800
H36         H  0.11796302  0.32893020  0.39431016     0.07600
C37         C  0.13561604  0.06701740  0.04417979     0.78000
Tb38       Tb  0.46673752  0.02271430  0.07201133     1.80700
O39         O  0.13038690  0.06666590  0.08928399    -0.50000
O40         O  0.08961412  0.50402343  0.13767580    -0.57500
C41         C  0.06157566  0.11622521  0.10200648     0.93800
O42         O  0.46673980  0.08549380  0.05332741    -0.57000
Tb43       Tb  0.05930216  0.02022306  0.07662175     1.78100
O44         O  0.40415853  0.46225484  0.09380794    -0.57500
O45         O  0.99591581  0.44923201  0.07647698    -0.76300
O46         O  0.07498812  0.09513090  0.07958263    -0.75600
O47         O  0.02749177  0.99932863  0.49477938    -0.60900
C48         C  0.46303260  0.42860737  0.04692020     0.93400
O49         O  0.98315287  0.00618109  0.14528681    -0.72900
C50         C  0.39793509  0.98834667  0.12151372     0.76800
C51         C  0.08598517  0.46973848  0.11091696     0.77800
O52         O  0.10290794  0.04548305  0.01469846    -0.58100
O53         O  0.06709040  0.45900441  0.06789223    -0.50100
O54         O  0.99857496  0.03690050  0.99973979    -0.76100
O55         O  0.05019320  0.04591614  0.15469090    -0.60100
C56         C  0.01691213  0.02612958  0.17236733     0.91600
C57         C  0.01465752  0.01990459  0.47543397     0.92800
C58         C  0.43286269  0.06094926  0.52590634     0.77200
O59         O  0.42635547  0.03124378  0.12580891    -0.49400
O60         O  0.41694343  0.51759417  0.01879332    -0.50600
O61         O  0.45185761  0.45151414  0.02934675    -0.63400
O62         O  0.02577434  0.09430572  0.11341960    -0.64600
C63         C  0.14266541  0.07731038  0.29562851     0.78000
Tb64       Tb  0.47345223  0.02426871  0.32260179     1.80700
O65         O  0.13660388  0.08176178  0.34023904    -0.50000
O66         O  0.10410022  0.51557443  0.37846438    -0.57500
C67         C  0.06579213  0.11806933  0.35165187     0.93800
O68         O  0.45800860  0.07831253  0.34030081    -0.57000
Tb69       Tb  0.06582891  0.02773511  0.32572568     1.78100
O70         O  0.40439370  0.46155540  0.30604656    -0.57500
O71         O  0.00888563  0.45602215  0.28166583    -0.76300
O72         O  0.07750570  0.09616006  0.36995451    -0.75600
O73         O  0.05082178  0.04716378  0.25356657    -0.60900
C74         C  0.47482725  0.43285419  0.29727925     0.93400
O75         O  0.00544566  0.04512967  0.40408057    -0.72900
C76         C  0.39579557  0.97113664  0.34765793     0.76800
C77         C  0.09537144  0.47842696  0.35176071     0.77800
O78         O  0.11042629  0.05088852  0.26521297    -0.58100
O79         O  0.07004400  0.46433981  0.31354241    -0.50100
O80         O  0.48351357  0.00422948  0.24275823    -0.76100
O81         O  0.03372761  0.00725334  0.39751978    -0.60100
C82         C  0.01803019  0.02415487  0.42282313     0.91600
C83         C  0.01709591  0.02587079  0.22575182     0.92800
C84         C  0.44399001  0.07399471  0.29641020     0.77200
O85         O  0.42607825  0.00513331  0.37739118    -0.49400
O86         O  0.44606108  0.54631571  0.26485209    -0.50600
O87         O  0.46395617  0.45339639  0.32631251    -0.63400
O88         O  0.03381880  0.09638379  0.32065308    -0.64600
C89         C  0.14529558  0.24360977  0.41633905     0.25100
C90         C  0.13770200  0.26804745  0.38707737    -0.23000
C91         C  0.10541853  0.24300737  0.34768098     0.20000
C92         C  0.08161734  0.19437190  0.33695280     0.25100
C93         C  0.08986617  0.16958942  0.36514466    -0.22900
C94         C  0.12156930  0.19472734  0.40551314     0.20000
F95         F  0.12978548  0.17219655  0.43449345    -0.12900
F96         F  0.17589838  0.26714042  0.45516630    -0.15300
F97         F  0.05140921  0.17189772  0.29766949    -0.15300
F98         F  0.09812862  0.26565839  0.31766587    -0.12900
C99         C  0.30591654  0.45278763  0.40347970     0.25100
C100        C  0.27423201  0.40809741  0.37743858    -0.23000
C101        C  0.28289368  0.38341845  0.34198051     0.20000
C102        C  0.32271842  0.40310647  0.33319431     0.25100
C103        C  0.35428267  0.44785453  0.35931888    -0.22900
C104        C  0.34550817  0.97254553  0.39419196     0.20000
F105        F  0.37503812  0.01705347  0.41711685    -0.12900
F106        F  0.29846011  0.97755124  0.43749541    -0.15300
F107        F  0.33027910  0.37876215  0.29869470    -0.15300
F108        F  0.25265724  0.34108564  0.31434816    -0.12900
C109        C  0.14400658  0.47403304  0.40493160     0.25100
C110        C  0.11497059  0.45569757  0.36227492    -0.23000
C111        C  0.10708095  0.41745516  0.32765581     0.20000
C112        C  0.12780367  0.39805527  0.33545822     0.25100
C113        C  0.15629576  0.41603342  0.37822163    -0.22900
C114        C  0.16467799  0.45438649  0.41269232     0.20000
F115        F  0.19220159  0.47208775  0.45423538    -0.12900
F116        F  0.15235475  0.51078709  0.43921313    -0.15300
F117        F  0.12031190  0.36177405  0.30098164    -0.15300
F118        F  0.07956973  0.39893169  0.28594758    -0.12900
C119        C  0.10946736  0.24079994  0.16945786     0.25100
C120        C  0.14246631  0.26714181  0.14342605    -0.23000
C121        C  0.14886620  0.24329941  0.10397208     0.20000
C122        C  0.12264762  0.19440257  0.09051853     0.25100
C123        C  0.08930732  0.16811941  0.11618902    -0.22900
C124        C  0.08311804  0.19197588  0.15585766     0.20000
F125        F  0.05166784  0.16810200  0.18190078    -0.12900
F126        F  0.10251761  0.26240837  0.20814397    -0.15300
F127        F  0.12906156  0.17305876  0.05091116    -0.15300
F128        F  0.17924329  0.26736433  0.07656741    -0.12900
C129        C  0.30148366  0.40898153  0.17588822     0.25100
C130        C  0.27862777  0.42594083  0.16400192    -0.23000
C131        C  0.29960028  0.46924293  0.14702790     0.20000
C132        C  0.34029890  0.99232921  0.13970894     0.25100
C133        C  0.35980789  0.47058471  0.14311116    -0.22900
C134        C  0.34066654  0.42962556  0.16304470     0.20000
F135        F  0.36020654  0.40991912  0.17079745    -0.12900
F136        F  0.28625570  0.37239167  0.19998524    -0.15300
F137        F  0.35984330  0.03488135  0.12627257    -0.15300
F138        F  0.28081607  0.98855260  0.13405930    -0.12900
C139        C  0.11985534  0.39029490  0.10685178     0.25100
C140        C  0.14673953  0.40921996  0.15171002    -0.23000
C141        C  0.15193851  0.44678438  0.18449602     0.20000
C142        C  0.13104558  0.46544977  0.17221419     0.25100
C143        C  0.10460685  0.44690874  0.12686267    -0.22900
C144        C  0.09894269  0.40869497  0.09471451     0.20000
F145        F  0.07395170  0.38970176  0.05062912    -0.12900
F146        F  0.11493897  0.35485881  0.07353217    -0.15300
F147        F  0.13765842  0.00252165  0.20412292    -0.15300
F148        F  0.17715503  0.96536403  0.22835214    -0.12900
C149        C  0.40724698  0.13076042  0.22591693     0.25100
C150        C  0.38432501  0.13592311  0.25970623    -0.23000
C151        C  0.38227205  0.12203381  0.30591380     0.20000
C152        C  0.40276954  0.10322268  0.31823986     0.25100
C153        C  0.42492970  0.09692544  0.28408676    -0.22900
C154        C  0.42725856  0.11108573  0.23793499     0.20000
F155        F  0.44998008  0.10731519  0.20532572    -0.12900
F156        F  0.40996526  0.14445748  0.18128906    -0.15300
F157        F  0.40024755  0.09029700  0.36327619    -0.15300
F158        F  0.36096472  0.12755290  0.33956796    -0.12900
C159        C  0.38911230  0.30606225  0.29658900     0.25100
C160        C  0.39574345  0.28206625  0.25764750    -0.23000
C161        C  0.42818487  0.30797206  0.23093531     0.20000
C162        C  0.45375775  0.35700669  0.24324495     0.25100
C163        C  0.44741406  0.38102063  0.28274835    -0.22900
C164        C  0.41435134  0.35481273  0.30875163     0.20000
F165        F  0.40677924  0.37607045  0.34708839    -0.12900
F166        F  0.35908596  0.28224828  0.32454366    -0.15300
F167        F  0.48446932  0.38083312  0.21620864    -0.15300
F168        F  0.43499349  0.28577681  0.19274467    -0.12900
C169        C  0.23334890  0.13430198  0.22543989     0.25100
C170        C  0.26145755  0.13384525  0.25639481    -0.23000
C171        C  0.24993944  0.11459847  0.29972245     0.20000
C172        C  0.21128472  0.09651410  0.31212589     0.25100
C173        C  0.18336044  0.09741537  0.28164553    -0.22900
C174        C  0.19430040  0.11563997  0.23770298     0.20000
F175        F  0.16763952  0.11652228  0.20753009    -0.12900
F176        F  0.24382225  0.15301344  0.18359889    -0.15300
F177        F  0.20080895  0.07711673  0.35357175    -0.15300
F178        F  0.27668357  0.11491560  0.33122129    -0.12900
C179        C  0.35330777  0.08235094  0.01041336     0.25100
C180        C  0.37363521  0.12444548  0.49130695    -0.23000
C181        C  0.41282214  0.14223352  0.47842279     0.20000
C182        C  0.43237866  0.12175363  0.48949101     0.25100
C183        C  0.41193656  0.08059623  0.50910845    -0.22900
C184        C  0.37153703  0.05967146  0.01645784     0.20000
F185        F  0.35000573  0.51777288  0.03145004    -0.12900
F186        F  0.31675297  0.06394362  0.02639273    -0.15300
F187        F  0.47101615  0.14156298  0.48003566    -0.15300
F188        F  0.43238950  0.17924549  0.45478750    -0.12900
C189        C  0.41790574  0.30174591  0.05304340     0.25100
C190        C  0.38969898  0.27752197  0.00939251    -0.23000
C191        C  0.38550545  0.30309075  0.97785052     0.20000
C192        C  0.40909195  0.35215477  0.98987136     0.25100
C193        C  0.43728539  0.37655343  0.03384591    -0.22900
C194        C  0.44132886  0.35060376  0.06525490     0.20000
F195        F  0.46724336  0.37233212  0.10869807    -0.12900
F196        F  0.42185669  0.27793717  0.08485948    -0.15300
F197        F  0.40480835  0.37569425  0.95800141    -0.15300
F198        F  0.35889672  0.28047406  0.43499410    -0.12900
C199        C  0.24245705  0.10416295  0.03931822     0.25100
C200        C  0.25371123  0.12848987  0.99940453    -0.23000
C201        C  0.22574747  0.13298376  0.47419664     0.20000
C202        C  0.18679148  0.11227827  0.98791482     0.25100
C203        C  0.17597684  0.08846588  0.02822199    -0.22900
C204        C  0.20421588  0.08481446  0.05386102     0.20000
F205        F  0.19460664  0.06190715  0.09283916    -0.12900
F206        F  0.26923143  0.10081461  0.06578567    -0.15300
F207        F  0.16013153  0.11666495  0.46292770    -0.15300
F208        F  0.23625946  0.15762081  0.43666656    -0.12900
C209        C  0.35536489  0.15091569  0.48802198     0.04700
C210        C  0.31293587  0.12750604  0.48130044    -0.11500
C211        C  0.29597340  0.15245451  0.48830822     0.02200
C212        C  0.32120777  0.20134932  0.49447307    -0.10000
C213        C  0.36334667  0.22557490  0.49820038     0.04600
C214        C  0.38021069  0.20041375  0.49677882    -0.09400
H215        H  0.29251807  0.08968040  0.47317174     0.10200
H216        H  0.30836944  0.22083135  0.50033119     0.07800
H217        H  0.41280217  0.22001172  0.50446064     0.07600
C218        C  0.36435500  0.15828081  0.74880110     0.04700
C219        C  0.32227993  0.13366129  0.74776143    -0.11500
C220        C  0.30387160  0.15691920  0.74663499     0.02200
C221        C  0.32778342  0.20478571  0.74494754    -0.10000
C222        C  0.37006990  0.23014023  0.74745509     0.04600
C223        C  0.38807537  0.20639854  0.74818499    -0.09400
H224        H  0.30419665  0.09695950  0.75063711     0.10200
H225        H  0.31383539  0.22312662  0.74573568     0.07800
H226        H  0.42081110  0.22596230  0.75253629     0.07600
C227        C  0.16927376  0.38942572  0.66250129     0.04700
C228        C  0.14762094  0.34087204  0.65707406    -0.11500
C229        C  0.16739304  0.31929505  0.65431287     0.02200
C230        C  0.20990325  0.34729359  0.65702071    -0.10000
C231        C  0.23322263  0.39693017  0.66550671     0.04600
C232        C  0.21194585  0.41743462  0.67013552    -0.09200
H233        H  0.11476204  0.31947365  0.65147787     0.10200
H234        H  0.22426017  0.32972613  0.65071030     0.07800
H235        H  0.22785395  0.45494416  0.67740785     0.07600
C236        C  0.17501318  0.39234071  0.88768550     0.04700
C237        C  0.21610775  0.41359531  0.88436211    -0.11500
C238        C  0.23212316  0.38777996  0.88613647     0.02200
C239        C  0.20679829  0.34098337  0.89184193    -0.10000
C240        C  0.16550684  0.31938734  0.89374804     0.04600
C241        C  0.15005990  0.34564909  0.89334540    -0.09400
H242        H  0.23484743  0.44909103  0.87747551     0.10200
H243        H  0.21872506  0.32051977  0.89164022     0.07800
H244        H  0.11796360  0.32893053  0.89431148     0.07600
C245        C  0.13561605  0.06701728  0.54417989     0.78000
Tb246      Tb  0.46673762  0.02271395  0.57201154     1.80700
O247        O  0.13038692  0.06666586  0.58928410    -0.50000
O248        O  0.08961510  0.50402441  0.63767562    -0.57500
C249        C  0.06157573  0.11622487  0.60200638     0.93800
O250        O  0.46674025  0.08549375  0.55332790    -0.57000
Tb251      Tb  0.05930219  0.02022286  0.57662167     1.78100
O252        O  0.40415862  0.46225423  0.59380705    -0.57500
O253        O  0.99591613  0.44923227  0.57647714    -0.76300
O254        O  0.07498800  0.09513057  0.57958204    -0.75600
O255        O  0.02749202  0.99932896  0.99477936    -0.60900
C256        C  0.46303302  0.42860742  0.54692011     0.93400
O257        O  0.98315298  0.00618037  0.64528672    -0.72900
C258        C  0.39793555  0.98834692  0.62151442     0.76800
C259        C  0.08598517  0.46973859  0.61091733     0.77800
O260        O  0.10290798  0.04548297  0.51469851    -0.58100
O261        O  0.06708964  0.45900381  0.56789293    -0.50100
O262        O  0.99857488  0.03690035  0.49973990    -0.76100
O263        O  0.05019333  0.04591580  0.65469101    -0.60100
C264        C  0.01691224  0.02612932  0.67236740     0.91600
C265        C  0.01465774  0.01990488  0.97543393     0.92800
C266        C  0.43286226  0.06094916  0.02590578     0.77200
O267        O  0.42635621  0.03124395  0.62580980    -0.49400
O268        O  0.41694352  0.51759372  0.51879282    -0.50600
O269        O  0.45185808  0.45151412  0.52934640    -0.63400
O270        O  0.02577460  0.09430535  0.61342010    -0.64600
C271        C  0.14266524  0.07731013  0.79562765     0.78000
Tb272      Tb  0.47345207  0.02426884  0.82260192     1.80700
O273        O  0.13660389  0.08176199  0.84023821    -0.50000
O274        O  0.10410018  0.51557418  0.87846531    -0.57500
C275        C  0.06579236  0.11806970  0.85165263     0.93800
O276        O  0.45800763  0.07831192  0.84030092    -0.57000
Tb277      Tb  0.06582894  0.02773526  0.82572537     1.78100
O278        O  0.40439401  0.46155599  0.80604648    -0.57500
O279        O  0.00888565  0.45602187  0.78166577    -0.76300
O280        O  0.07750611  0.09616032  0.86995464    -0.75600
O281        O  0.05082181  0.04716463  0.75356690    -0.60900
C282        C  0.47482705  0.43285415  0.79727869     0.93400
O283        O  0.00544577  0.04512988  0.90408057    -0.72900
C284        C  0.39579541  0.97113648  0.84765802     0.76800
C285        C  0.09537127  0.47842651  0.85176201     0.77800
O286        O  0.11042601  0.05088802  0.76521232    -0.58100
O287        O  0.07004372  0.46433912  0.81354375    -0.50100
O288        O  0.48351358  0.00422965  0.74275841    -0.76100
O289        O  0.03372802  0.00725384  0.89751977    -0.60100
C290        C  0.01803045  0.02415521  0.92282310     0.91600
C291        C  0.01709596  0.02587107  0.72575200     0.92800
C292        C  0.44398983  0.07399482  0.79641014     0.77200
O293        O  0.42607804  0.00513320  0.87739128    -0.49400
O294        O  0.44606050  0.54631519  0.76485203    -0.50600
O295        O  0.46395600  0.45339643  0.82631192    -0.63400
O296        O  0.03381877  0.09638433  0.82065429    -0.64600
C297        C  0.14529586  0.24361005  0.91634026     0.25100
C298        C  0.13770259  0.26804785  0.88707839    -0.23000
C299        C  0.10541935  0.24300792  0.84768172     0.20000
C300        C  0.08161803  0.19437243  0.83695350     0.25100
C301        C  0.08986653  0.16958980  0.86514554    -0.22900
C302        C  0.12156946  0.19472759  0.90551426     0.20000
F303        F  0.12978530  0.17219663  0.93449473    -0.12900
F304        F  0.17589843  0.26714059  0.95516778    -0.15300
F305        F  0.05141010  0.17189839  0.79766996    -0.15300
F306        F  0.09812979  0.26565908  0.81766643    -0.12900
C307        C  0.30591711  0.45278820  0.90348044     0.25100
C308        C  0.27423255  0.40809797  0.87743940    -0.23000
C309        C  0.28289412  0.38341920  0.84198091     0.20000
C310        C  0.32271880  0.40310740  0.83319428     0.25100
C311        C  0.35428308  0.44785544  0.85931883    -0.22900
C312        C  0.34550778  0.97254553  0.89419122     0.20000
F313        F  0.37503751  0.01705387  0.91711529    -0.12900
F314        F  0.29845947  0.97755146  0.93749374    -0.15300
F315        F  0.33027939  0.37876329  0.79869423    -0.15300
F316        F  0.25265764  0.34108641  0.81434858    -0.12900
C317        C  0.14400567  0.47403213  0.90493390     0.25100
C318        C  0.11497050  0.45569725  0.86227646    -0.23000
C319        C  0.10708188  0.41745570  0.82765682     0.20000
C320        C  0.12780488  0.39805618  0.83545935     0.25100
C321        C  0.15629627  0.41603383  0.87822337    -0.22900
C322        C  0.16467745  0.45438600  0.91269468     0.20000
F323        F  0.19220035  0.47208675  0.95423835    -0.12900
F324        F  0.15235256  0.51078506  0.93921620    -0.15300
F325        F  0.12031396  0.36177566  0.80098238    -0.15300
F326        F  0.07957142  0.39893278  0.78594791    -0.12900
C327        C  0.10946762  0.24079962  0.66945761     0.25100
C328        C  0.14246609  0.26714143  0.64342514    -0.23000
C329        C  0.14886557  0.24329902  0.60397069     0.20000
C330        C  0.12264708  0.19440217  0.59051740     0.25100
C331        C  0.08930729  0.16811906  0.61618864    -0.22900
C332        C  0.08311840  0.19197554  0.65585770     0.20000
F333        F  0.05166875  0.16810167  0.68190159    -0.12900
F334        F  0.10251830  0.26240811  0.70814418    -0.15300
F335        F  0.12906066  0.17305828  0.55090968    -0.15300
F336        F  0.17924216  0.26736393  0.57656538    -0.12900
C337        C  0.30148325  0.40898041  0.67588687     0.25100
C338        C  0.27862759  0.42594009  0.66400093    -0.23000
C339        C  0.29960032  0.46924238  0.64702732     0.20000
C340        C  0.34029959  0.99232974  0.63970990     0.25100
C341        C  0.35980772  0.47058371  0.64311024    -0.22900
C342        C  0.34066613  0.42962432  0.66304336     0.20000
F343        F  0.36020586  0.40991751  0.67079572    -0.12900
F344        F  0.28625508  0.37239031  0.69998357    -0.15300
F345        F  0.35984393  0.03488175  0.62627321    -0.15300
F346        F  0.28081678  0.98855312  0.63406014    -0.12900
C347        C  0.11985407  0.39029383  0.60685260     0.25100
C348        C  0.14673926  0.40921963  0.65171008    -0.23000
C349        C  0.15193903  0.44678475  0.68449571     0.20000
C350        C  0.13104615  0.46545027  0.67221407     0.25100
C351        C  0.10460663  0.44690865  0.62686316    -0.22900
C352        C  0.09894145  0.40869400  0.59471557     0.20000
F353        F  0.07394949  0.38970000  0.55063091    -0.12900
F354        F  0.11493670  0.35485690  0.57353334    -0.15300
F355        F  0.13765689  0.00251979  0.70412346    -0.15300
F356        F  0.17715368  0.96536238  0.72835274    -0.12900
C357        C  0.40724705  0.13076064  0.72591645     0.25100
C358        C  0.38432533  0.13592376  0.75970583    -0.23000
C359        C  0.38227259  0.12203488  0.80591360     0.20000
C360        C  0.40276988  0.10322354  0.81823973     0.25100
C361        C  0.42492971  0.09692575  0.78408654    -0.22900
C362        C  0.42725853  0.11108585  0.73793463     0.20000
F363        F  0.44997980  0.10731489  0.70532526    -0.12900
F364        F  0.40996519  0.14445737  0.68128840    -0.15300
F365        F  0.40024800  0.09029820  0.86327623    -0.15300
F366        F  0.36096553  0.12755444  0.83956784    -0.12900
C367        C  0.38911096  0.30606225  0.79658648     0.25100
C368        C  0.39574274  0.28206627  0.75764570    -0.23000
C369        C  0.42818468  0.30797218  0.73093424     0.20000
C370        C  0.45375762  0.35700680  0.74324413     0.25100
C371        C  0.44741349  0.38102065  0.78274709    -0.22900
C372        C  0.41435008  0.35481272  0.80874935     0.20000
F373        F  0.40677746  0.37607036  0.84708555    -0.12900
F374        F  0.35908404  0.28224829  0.82454041    -0.15300
F375        F  0.48446980  0.38083329  0.71620862    -0.15300
F376        F  0.43499388  0.28577703  0.69274420    -0.12900
C377        C  0.23334843  0.13430085  0.72543837     0.25100
C378        C  0.26145733  0.13384487  0.75639371    -0.23000
C379        C  0.24993944  0.11459874  0.79972175     0.20000
C380        C  0.21128472  0.09651437  0.81212521     0.25100
C381        C  0.18336021  0.09741496  0.78164448    -0.22900
C382        C  0.19429991  0.11563879  0.73770146     0.20000
F383        F  0.16763875  0.11652023  0.70752805    -0.12900
F384        F  0.24382153  0.15301160  0.68359692    -0.15300
F385        F  0.20080918  0.07711761  0.85357146    -0.15300
F386        F  0.27668379  0.11491652  0.83122094    -0.12900
C387        C  0.35330819  0.08235099  0.51041399     0.25100
C388        C  0.37363482  0.12444537  0.99130621    -0.23000
C389        C  0.41282167  0.14223323  0.97842187     0.20000
C390        C  0.43237816  0.12175333  0.98949014     0.25100
C391        C  0.41193604  0.08059595  0.00910763    -0.22900
C392        C  0.37153756  0.05967168  0.51645865     0.20000
F393        F  0.35000557  0.51777242  0.53144959    -0.12900
F394        F  0.31675321  0.06394334  0.52639294    -0.15300
F395        F  0.47101571  0.14156274  0.98003499    -0.15300
F396        F  0.43238908  0.17924520  0.95478658    -0.12900
C397        C  0.41790665  0.30174602  0.55304337     0.25100
C398        C  0.38969890  0.27752185  0.50939335    -0.23000
C399        C  0.38550441  0.30309046  0.47785207     0.20000
C400        C  0.40909101  0.35215449  0.48987266     0.25100
C401        C  0.43728565  0.37655341  0.53384618    -0.22900
C402        C  0.44132998  0.35060391  0.56525456     0.20000
F403        F  0.46724554  0.37233242  0.60869687    -0.12900
F404        F  0.42185841  0.27793750  0.58485899    -0.15300
F405        F  0.40480619  0.37569370  0.45800350    -0.15300
F406        F  0.35889885  0.28047453  0.93499162    -0.12900
C407        C  0.24245637  0.10416091  0.53931746     0.25100
C408        C  0.25371115  0.12848913  0.49940477    -0.23000
C409        C  0.22574708  0.13298336  0.97419564     0.20000
C410        C  0.18679191  0.11227894  0.48791579     0.25100
C411        C  0.17597678  0.08846546  0.52822209    -0.22900
C412        C  0.20421519  0.08481255  0.55386017     0.20000
F413        F  0.19460535  0.06190405  0.59283738    -0.12900
F414        F  0.26923019  0.10081124  0.56578417    -0.15300
F415        F  0.16013053  0.11666285  0.96292576    -0.15300
F416        F  0.23625861  0.15761950  0.93666479    -0.12900
C417        C  0.35536439  0.65091549  0.98802205     0.04700
C418        C  0.31293538  0.62750588  0.98130066    -0.11500
C419        C  0.29597299  0.65245443  0.98830848     0.02200
C420        C  0.32120740  0.70134925  0.99447321    -0.10000
C421        C  0.36334629  0.72557474  0.99820039     0.04600
C422        C  0.38021024  0.70041353  0.99677877    -0.09400
H423        H  0.29251756  0.58968025  0.97317209     0.10200
H424        H  0.30836914  0.72083135  0.00033133     0.07800
H425        H  0.41280173  0.72001146  0.00446047     0.07600
C426        C  0.36435456  0.65828033  0.24880014     0.04700
C427        C  0.32227950  0.63366099  0.24776056    -0.11500
C428        C  0.30387130  0.65691906  0.24663407     0.02200
C429        C  0.32778323  0.70478551  0.24494635    -0.10000
C430        C  0.37006970  0.73013984  0.24745377     0.04600
C431        C  0.38807501  0.70639800  0.24818375    -0.09400
H432        H  0.30419613  0.59695924  0.25063642     0.10200
H433        H  0.31383532  0.72312656  0.24573450     0.07800
H434        H  0.42081075  0.72596166  0.25253501     0.07600
C435        C  0.16927360  0.88942595  0.16250260     0.04700
C436        C  0.14762085  0.84087230  0.15707588    -0.11500
C437        C  0.16739301  0.81929537  0.15431464     0.02200
C438        C  0.20990320  0.84729392  0.15702206    -0.10000
C439        C  0.23322250  0.89693047  0.16550749     0.04600
C440        C  0.21194570  0.91743490  0.17013631    -0.09200
H441        H  0.11476196  0.81947385  0.15148004     0.10200
H442        H  0.22426014  0.82972648  0.15071168     0.07800
H443        H  0.22785379  0.95494442  0.17740819     0.07600
C444        C  0.17501349  0.89234138  0.38768609     0.04700
C445        C  0.21610797  0.91359581  0.38436222    -0.11500
C446        C  0.23212317  0.88778018  0.38613586     0.02200
C447        C  0.20679822  0.84098355  0.39184109    -0.10000
C448        C  0.16550687  0.81938773  0.39374774     0.04600
C449        C  0.15006012  0.84564970  0.39334573    -0.09400
H450        H  0.23484769  0.94909157  0.37747576     0.10200
H451        H  0.21872485  0.82051977  0.39163891     0.07800
H452        H  0.11796385  0.82893127  0.39431204     0.07600
C453        C  0.13561574  0.56701751  0.04418024     0.78000
Tb454      Tb  0.46673765  0.52271452  0.07201219     1.80700
O455        O  0.13038670  0.56666592  0.08928447    -0.50000
O456        O  0.08961449  0.00402407  0.13767573    -0.57500
C457        C  0.06157573  0.61622524  0.10200791     0.93800
O458        O  0.46674010  0.58549416  0.05332832    -0.57000
Tb459      Tb  0.05930201  0.52022307  0.07662226     1.78100
O460        O  0.40415852  0.96225434  0.09380721    -0.57500
O461        O  0.99591584  0.94923212  0.07647669    -0.76300
O462        O  0.07498812  0.59513100  0.07958375    -0.75600
O463        O  0.02749229  0.49932955  0.49477972    -0.60900
C464        C  0.46303269  0.92860727  0.04691987     0.93400
O465        O  0.98315271  0.50618031  0.14528720    -0.72900
C466        C  0.39793553  0.48834729  0.12151502     0.76800
C467        C  0.08598491  0.96973845  0.11091751     0.77800
O468        O  0.10290765  0.54548340  0.01469896    -0.58100
O469        O  0.06708976  0.95900378  0.06789288    -0.50100
O470        O  0.99857497  0.53690117  0.99974066    -0.76100
O471        O  0.05019305  0.54591580  0.15469161    -0.60100
C472        C  0.01691194  0.52612929  0.17236794     0.91600
C473        C  0.01465802  0.51990552  0.47543441     0.92800
C474        C  0.43286237  0.56094904  0.52590659     0.77200
O475        O  0.42635618  0.53124435  0.12581054    -0.49400
O476        O  0.41694335  0.01759382  0.01879207    -0.50600
O477        O  0.45185765  0.95151392  0.02934623    -0.63400
O478        O  0.02577444  0.59430573  0.11342107    -0.64600
C479        C  0.14266524  0.57731054  0.29562777     0.78000
Tb480      Tb  0.47345192  0.52426896  0.32260234     1.80700
O481        O  0.13660397  0.58176226  0.34023839    -0.50000
O482        O  0.10410019  0.01557440  0.37846519    -0.57500
C483        C  0.06579214  0.61807006  0.35165282     0.93800
O484        O  0.45800720  0.57831183  0.34030103    -0.57000
Tb485      Tb  0.06582899  0.52773571  0.32572566     1.78100
O486        O  0.40439395  0.96155548  0.30604592    -0.57500
O487        O  0.00888589  0.95602173  0.28166490    -0.76300
O488        O  0.07750608  0.59616080  0.36995469    -0.75600
O489        O  0.05082154  0.54716503  0.25356744    -0.60900
C490        C  0.47482720  0.93285375  0.29727794     0.93400
O491        O  0.00544573  0.54513024  0.40408097    -0.72900
C492        C  0.39579529  0.47113647  0.34765857     0.76800
C493        C  0.09537142  0.97842676  0.35176201     0.77800
O494        O  0.11042596  0.55088857  0.26521249    -0.58100
O495        O  0.07004401  0.96433928  0.31354358    -0.50100
O496        O  0.48351328  0.50422940  0.24275888    -0.76100
O497        O  0.03372834  0.50725459  0.39752028    -0.60100
C498        C  0.01803064  0.52415581  0.42282356     0.91600
C499        C  0.01709566  0.52587107  0.22575252     0.92800
C500        C  0.44398953  0.57399471  0.29641017     0.77200
O501        O  0.42607792  0.50513330  0.37739175    -0.49400
O502        O  0.44606063  0.04631497  0.26485206    -0.50600
O503        O  0.46395616  0.95339590  0.32631137    -0.63400
O504        O  0.03381832  0.59638460  0.32065485    -0.64600
C505        C  0.14529590  0.74361048  0.41633994     0.25100
C506        C  0.13770252  0.76804826  0.38707819    -0.23000
C507        C  0.10541903  0.74300831  0.34768183     0.20000
C508        C  0.08161771  0.69437280  0.33695365     0.25100
C509        C  0.08986637  0.66959019  0.36514554    -0.22900
C510        C  0.12156947  0.69472803  0.40551405     0.20000
F511        F  0.12978532  0.67219712  0.43449458    -0.12900
F512        F  0.17589858  0.76714105  0.45516733    -0.15300
F513        F  0.05140958  0.67189869  0.29767037    -0.15300
F514        F  0.09812917  0.76565947  0.31766689    -0.12900
C515        C  0.30591719  0.95278806  0.40347987     0.25100
C516        C  0.27423248  0.90809804  0.37743856    -0.23000
C517        C  0.28289385  0.88341924  0.34197980     0.20000
C518        C  0.32271851  0.90310715  0.33319328     0.25100
C519        C  0.35428297  0.94785494  0.35931820    -0.22900
C520        C  0.34550763  0.47254517  0.39419216     0.20000
F521        F  0.37503741  0.51705325  0.41711681    -0.12900
F522        F  0.29845919  0.47755092  0.43749469    -0.15300
F523        F  0.33027892  0.87876301  0.29869299    -0.15300
F524        F  0.25265721  0.84108669  0.31434721    -0.12900
C525        C  0.14400496  0.97403180  0.40493497     0.25100
C526        C  0.11497067  0.95569759  0.36227671    -0.23000
C527        C  0.10708301  0.91745689  0.32765648     0.20000
C528        C  0.12780613  0.89805757  0.33545918     0.25100
C529        C  0.15629665  0.91603453  0.37822396    -0.22900
C530        C  0.16467688  0.95438585  0.41269592     0.20000
F531        F  0.19219897  0.97208592  0.45424030    -0.12900
F532        F  0.15235078  0.01078378  0.43921793    -0.15300
F533        F  0.12031624  0.86177796  0.30098162    -0.15300
F534        F  0.07957349  0.89893472  0.28594673    -0.12900
C535        C  0.10946781  0.74079990  0.16945973     0.25100
C536        C  0.14246613  0.76714174  0.14342705    -0.23000
C537        C  0.14886553  0.74329936  0.10397248     0.20000
C538        C  0.12264709  0.69440253  0.09051922     0.25100
C539        C  0.08930734  0.66811939  0.11619049    -0.22900
C540        C  0.08311853  0.69197581  0.15585973     0.20000
F541        F  0.05166888  0.66810187  0.18190361    -0.12900
F542        F  0.10251866  0.76240840  0.20814650    -0.15300
F543        F  0.12906059  0.67305867  0.05091140    -0.15300
F544        F  0.17924193  0.76736427  0.07656693    -0.12900
C545        C  0.30148325  0.90898099  0.17588715     0.25100
C546        C  0.27862737  0.92594037  0.16400107    -0.23000
C547        C  0.29959978  0.96924230  0.14702676     0.20000
C548        C  0.34029947  0.49232997  0.13971037     0.25100
C549        C  0.35980733  0.97058393  0.14310967    -0.22900
C550        C  0.34066603  0.92962484  0.16304332     0.20000
F551        F  0.36020598  0.90991832  0.17079594    -0.12900
F552        F  0.28625539  0.87239124  0.19998433    -0.15300
F553        F  0.35984393  0.53488217  0.12627413    -0.15300
F554        F  0.28081663  0.48855330  0.13406039    -0.12900
C555        C  0.11985339  0.89029335  0.10685406     0.25100
C556        C  0.14673900  0.90921974  0.15171124    -0.23000
C557        C  0.15193927  0.94678548  0.18449625     0.20000
C558        C  0.13104637  0.96545091  0.17221433     0.25100
C559        C  0.10460639  0.94690864  0.12686372    -0.22900
C560        C  0.09894078  0.90869345  0.09471674     0.20000
F561        F  0.07394833  0.88969878  0.05063241    -0.12900
F562        F  0.11493564  0.85485592  0.07353530    -0.15300
F563        F  0.13765630  0.50251920  0.20412389    -0.15300
F564        F  0.17715302  0.46536162  0.22835280    -0.12900
C565        C  0.40724769  0.63076144  0.22591656     0.25100
C566        C  0.38432480  0.63592320  0.25970506    -0.23000
C567        C  0.38227093  0.62203305  0.30591229     0.20000
C568        C  0.40276836  0.60322197  0.31823877     0.25100
C569        C  0.42492930  0.59692546  0.28408636    -0.22900
C570        C  0.42725918  0.61108672  0.23793499     0.20000
F571        F  0.44998158  0.60731709  0.20532650    -0.12900
F572        F  0.40996694  0.64445939  0.18128908    -0.15300
F573        F  0.40024563  0.59029571  0.36327488    -0.15300
F574        F  0.36096275  0.62755128  0.33956575    -0.12900
C575        C  0.38911108  0.80606183  0.29658550     0.25100
C576        C  0.39574269  0.78206588  0.25764451    -0.23000
C577        C  0.42818465  0.80797178  0.23093309     0.20000
C578        C  0.45375769  0.85700641  0.24324312     0.25100
C579        C  0.44741365  0.88102025  0.28274620    -0.22900
C580        C  0.41435028  0.85481228  0.30874852     0.20000
F581        F  0.40677773  0.87606987  0.34708485    -0.12900
F582        F  0.35908425  0.78224785  0.32453953    -0.15300
F583        F  0.48446987  0.88083292  0.21620762    -0.15300
F584        F  0.43499379  0.78577663  0.19274299    -0.12900
C585        C  0.23334810  0.63430075  0.22543784     0.25100
C586        C  0.26145714  0.63384499  0.25639318    -0.23000
C587        C  0.24993951  0.61459933  0.29972154     0.20000
C588        C  0.21128488  0.59651512  0.31212526     0.25100
C589        C  0.18336019  0.59741537  0.28164446    -0.22900
C590        C  0.19429966  0.61563883  0.23770120     0.20000
F591        F  0.16763838  0.61652009  0.20752781    -0.12900
F592        F  0.24382098  0.65301113  0.18359614    -0.15300
F593        F  0.20080962  0.57711884  0.35357185    -0.15300
F594        F  0.27668404  0.61491744  0.33122076    -0.12900
C595        C  0.35330776  0.58235094  0.01041443     0.25100
C596        C  0.37363473  0.62444480  0.49130633    -0.23000
C597        C  0.41282158  0.64223264  0.47842201     0.20000
C598        C  0.43237813  0.62175288  0.48949055     0.25100
C599        C  0.41193611  0.58059575  0.50910844    -0.22900
C600        C  0.37153723  0.55967177  0.01645929     0.20000
F601        F  0.35000537  0.01777244  0.03144833    -0.12900
F602        F  0.31675282  0.56394337  0.02639350    -0.15300
F603        F  0.47101561  0.64156213  0.48003519    -0.15300
F604        F  0.43238888  0.67924439  0.45478639    -0.12900
C605        C  0.41790628  0.80174590  0.05304332     0.25100
C606        C  0.38969861  0.77752168  0.00939323    -0.23000
C607        C  0.38550434  0.80309025  0.97785168     0.20000
C608        C  0.40909098  0.85215430  0.98987218     0.25100
C609        C  0.43728540  0.87655326  0.03384590    -0.22900
C610        C  0.44132959  0.85060378  0.06525446     0.20000
F611        F  0.46724504  0.87233234  0.10869687    -0.12900
F612        F  0.42185798  0.77793741  0.08485902    -0.15300
F613        F  0.40480646  0.87569349  0.95800272    -0.15300
F614        F  0.35889872  0.78047383  0.43499183    -0.12900
C615        C  0.24245577  0.60416045  0.03931734     0.25100
C616        C  0.25371075  0.62848914  0.99940503    -0.23000
C617        C  0.22574738  0.63298383  0.47419601     0.20000
C618        C  0.18679167  0.61227939  0.98791631     0.25100
C619        C  0.17597641  0.58846557  0.02822234    -0.22900
C620        C  0.20421462  0.58481216  0.05386006     0.20000
F621        F  0.19460457  0.56190317  0.09283689    -0.12900
F622        F  0.26922933  0.60081014  0.06578364    -0.15300
F623        F  0.16013138  0.61666489  0.46292706    -0.15300
F624        F  0.23625933  0.65762080  0.43666586    -0.12900
C625        C  0.35536456  0.65091514  0.48802124     0.04700
C626        C  0.31293555  0.62750567  0.48129971    -0.11500
C627        C  0.29597329  0.65245437  0.48830743     0.02200
C628        C  0.32120784  0.70134919  0.49447223    -0.10000
C629        C  0.36334672  0.72557452  0.49819959     0.04600
C630        C  0.38021053  0.70041318  0.49677811    -0.09400
H631        H  0.29251765  0.58968003  0.47317119     0.10200
H632        H  0.30836968  0.72083141  0.50033028     0.07800
H633        H  0.41280201  0.72001100  0.50446005     0.07600
C634        C  0.36435461  0.65828043  0.74880100     0.04700
C635        C  0.32227957  0.63366108  0.74776148    -0.11500
C636        C  0.30387139  0.65691919  0.74663526     0.02200
C637        C  0.32778333  0.70478568  0.74494772    -0.10000
C638        C  0.37006977  0.73013997  0.74745497     0.04600
C639        C  0.38807507  0.70639811  0.74818475    -0.09400
H640        H  0.30419621  0.59695929  0.75063716     0.10200
H641        H  0.31383546  0.72312679  0.74573613     0.07800
H642        H  0.42081080  0.72596174  0.75253589     0.07600
C643        C  0.16927428  0.88942633  0.66250206     0.04700
C644        C  0.14762144  0.84087268  0.65707493    -0.11500
C645        C  0.16739355  0.81929570  0.65431446     0.02200
C646        C  0.20990383  0.84729427  0.65702264    -0.10000
C647        C  0.23322314  0.89693086  0.66550811     0.04600
C648        C  0.21194633  0.91743525  0.67013653    -0.09200
H649        H  0.11476254  0.81947428  0.65147824     0.10200
H650        H  0.22426083  0.82972685  0.65071278     0.07800
H651        H  0.22785440  0.95494478  0.67740869     0.07600
C652        C  0.17501300  0.89234061  0.88768437     0.04700
C653        C  0.21610751  0.91359503  0.88436070    -0.11500
C654        C  0.23212282  0.88777958  0.88613521     0.02200
C655        C  0.20679787  0.84098307  0.89184087    -0.10000
C656        C  0.16550646  0.81938719  0.89374706     0.04600
C657        C  0.15005965  0.84564906  0.89334444    -0.09400
H658        H  0.23484721  0.94909066  0.87747392     0.10200
H659        H  0.21872457  0.82051941  0.89163930     0.07800
H660        H  0.11796338  0.82893066  0.89431065     0.07600
C661        C  0.13561606  0.56701751  0.54417968     0.78000
Tb662      Tb  0.46673784  0.52271432  0.57201182     1.80700
O663        O  0.13038708  0.56666607  0.58928394    -0.50000
O664        O  0.08961444  0.00402354  0.63767538    -0.57500
C665        C  0.06157581  0.61622546  0.60200738     0.93800
O666        O  0.46673994  0.58549375  0.55332815    -0.57000
Tb667      Tb  0.05930235  0.52022332  0.57662208     1.78100
O668        O  0.40415847  0.96225438  0.59380737    -0.57500
O669        O  0.99591606  0.94923182  0.57647676    -0.76300
O670        O  0.07498835  0.59513123  0.57958357    -0.75600
O671        O  0.02749176  0.49932934  0.99477998    -0.60900
C672        C  0.46303275  0.92860687  0.54691992     0.93400
O673        O  0.98315297  0.50618062  0.64528706    -0.72900
C674        C  0.39793548  0.48834647  0.62151430     0.76800
C675        C  0.08598536  0.96973841  0.61091676     0.77800
O676        O  0.10290788  0.54548325  0.51469852    -0.58100
O677        O  0.06709045  0.95900407  0.56789206    -0.50100
O678        O  0.99857532  0.53690116  0.49974041    -0.76100
O679        O  0.05019331  0.54591608  0.65469135    -0.60100
C680        C  0.01691221  0.52612934  0.67236769     0.91600
C681        C  0.01465756  0.51990539  0.97543464     0.92800
C682        C  0.43286246  0.56094953  0.02590692     0.77200
O683        O  0.42635611  0.53124357  0.62581016    -0.49400
O684        O  0.41694361  0.01759387  0.51879251    -0.50600
O685        O  0.45185759  0.95151347  0.52934644    -0.63400
O686        O  0.02577447  0.59430588  0.61342045    -0.64600
C687        C  0.14266538  0.57731051  0.79562901     0.78000
Tb688      Tb  0.47345228  0.52426930  0.82260202     1.80700
O689        O  0.13660391  0.58176158  0.84023963    -0.50000
O690        O  0.10410020  0.01557418  0.87846437    -0.57500
C691        C  0.06579224  0.61806955  0.85165188     0.93800
O692        O  0.45800882  0.57831331  0.84030062    -0.57000
Tb693      Tb  0.06582890  0.52773520  0.82572625     1.78100
O694        O  0.40439383  0.96155542  0.80604600    -0.57500
O695        O  0.00888567  0.95602184  0.78166504    -0.76300
O696        O  0.07750566  0.59616024  0.86995480    -0.75600
O697        O  0.05082179  0.54716354  0.75356691    -0.60900
C698        C  0.47482706  0.93285391  0.79727820     0.93400
O699        O  0.00544554  0.54513021  0.90408105    -0.72900
C700        C  0.39579566  0.47113735  0.84765841     0.76800
C701        C  0.09537136  0.97842660  0.85176094     0.77800
O702        O  0.11042622  0.55088902  0.76521349    -0.58100
O703        O  0.07004387  0.96433929  0.81354265    -0.50100
O704        O  0.48351362  0.50422971  0.74275854    -0.76100
O705        O  0.03372777  0.50725415  0.89752056    -0.60100
C706        C  0.01803021  0.52415560  0.92282376     0.91600
C707        C  0.01709592  0.52587066  0.72575221     0.92800
C708        C  0.44399001  0.57399515  0.79641001     0.77200
O709        O  0.42607834  0.50513429  0.87739144    -0.49400
O710        O  0.44606119  0.04631573  0.76485194    -0.50600
O711        O  0.46395609  0.95339611  0.82631166    -0.63400
O712        O  0.03381900  0.59638400  0.82065294    -0.64600
C713        C  0.14529564  0.74360996  0.91633921     0.25100
C714        C  0.13770216  0.76804771  0.88707752    -0.23000
C715        C  0.10541876  0.74300769  0.84768102     0.20000
C716        C  0.08161760  0.69437220  0.83695270     0.25100
C717        C  0.08986633  0.66958966  0.86514461    -0.22900
C718        C  0.12156935  0.69472754  0.90551321     0.20000
F719        F  0.12978541  0.67219670  0.93449360    -0.12900
F720        F  0.17589832  0.76714054  0.95516659    -0.15300
F721        F  0.05140952  0.67189805  0.79766934    -0.15300
F722        F  0.09812891  0.76565879  0.81766599    -0.12900
C723        C  0.30591675  0.95278794  0.90347899     0.25100
C724        C  0.27423223  0.90809748  0.87743835    -0.23000
C725        C  0.28289388  0.88341836  0.84198045     0.20000
C726        C  0.32271859  0.90310643  0.83319406     0.25100
C727        C  0.35428282  0.94785465  0.85931828    -0.22900
C728        C  0.34550812  0.47254596  0.89419241     0.20000
F729        F  0.37503789  0.51705408  0.91711698    -0.12900
F730        F  0.29845987  0.47755131  0.93749584    -0.15300
F731        F  0.33027928  0.87876203  0.79869458    -0.15300
F732        F  0.25265745  0.84108538  0.81434840    -0.12900
C733        C  0.14400521  0.97403168  0.90493320     0.25100
C734        C  0.11497058  0.95569734  0.86227529    -0.23000
C735        C  0.10708250  0.91745634  0.82765515     0.20000
C736        C  0.12780543  0.89805675  0.83545774     0.25100
C737        C  0.15629624  0.91603384  0.87822224    -0.22900
C738        C  0.16467689  0.95438545  0.91269405     0.20000
F739        F  0.19219912  0.97208551  0.95423827    -0.12900
F740        F  0.15235170  0.01078419  0.93921586    -0.15300
F741        F  0.12031503  0.86177675  0.80098038    -0.15300
F742        F  0.07957274  0.89893413  0.78594564    -0.12900
C743        C  0.10946762  0.74080026  0.66945868     0.25100
C744        C  0.14246654  0.76714205  0.64342680    -0.23000
C745        C  0.14886627  0.74329961  0.60397271     0.20000
C746        C  0.12264762  0.69440278  0.59051918     0.25100
C747        C  0.08930739  0.66811967  0.61618981    -0.22900
C748        C  0.08311819  0.69197620  0.65585847     0.20000
F749        F  0.05166797  0.66810239  0.68190159    -0.12900
F750        F  0.10251798  0.76240878  0.70814483    -0.15300
F751        F  0.12906146  0.67305892  0.55091174    -0.15300
F752        F  0.17924326  0.76736448  0.57656789    -0.12900
C753        C  0.30148400  0.90898165  0.67588841     0.25100
C754        C  0.27862806  0.92594088  0.66400204    -0.23000
C755        C  0.29960048  0.96924283  0.64702772     0.20000
C756        C  0.34029951  0.49232926  0.63970982     0.25100
C757        C  0.35980802  0.97058450  0.64311076    -0.22900
C758        C  0.34066682  0.92962558  0.66304471     0.20000
F759        F  0.36020689  0.90991924  0.67079758    -0.12900
F760        F  0.28625614  0.87239195  0.69998566    -0.15300
F761        F  0.35984418  0.53488161  0.62627392    -0.15300
F762        F  0.28081692  0.48855312  0.63406024    -0.12900
C763        C  0.11985554  0.89029488  0.60685219     0.25100
C764        C  0.14673989  0.90922021  0.65171032    -0.23000
C765        C  0.15193897  0.94678481  0.68449608     0.20000
C766        C  0.13104598  0.96545009  0.67221409     0.25100
C767        C  0.10460708  0.94690877  0.62686268    -0.22900
C768        C  0.09894280  0.90869481  0.59471480     0.20000
F769        F  0.07395155  0.88970121  0.55062958    -0.12900
F770        F  0.11493919  0.85485873  0.57353272    -0.15300
F771        F  0.13765770  0.50252042  0.70412331    -0.15300
F772        F  0.17715425  0.46536255  0.72835196    -0.12900
C773        C  0.40724701  0.63076079  0.72591652     0.25100
C774        C  0.38432483  0.63592325  0.75970564    -0.23000
C775        C  0.38227167  0.62203376  0.80591314     0.20000
C776        C  0.40276930  0.60322285  0.81823939     0.25100
C777        C  0.42492962  0.59692576  0.78408642    -0.22900
C778        C  0.42725856  0.61108610  0.73793466     0.20000
F779        F  0.44998008  0.60731552  0.70532543    -0.12900
F780        F  0.40996544  0.64445798  0.68128870    -0.15300
F781        F  0.40024727  0.59029717  0.86327573    -0.15300
F782        F  0.36096399  0.62755246  0.83956705    -0.12900
C783        C  0.38911138  0.80606202  0.79658682     0.25100
C784        C  0.39574278  0.78206599  0.75764564    -0.23000
C785        C  0.42818446  0.80797181  0.73093381     0.20000
C786        C  0.45375744  0.85700644  0.74324360     0.25100
C787        C  0.44741359  0.88102037  0.78274682    -0.22900
C788        C  0.41435049  0.85481248  0.80874955     0.20000
F789        F  0.40677814  0.87607018  0.84708602    -0.12900
F790        F  0.35908487  0.78224810  0.82454127    -0.15300
F791        F  0.48446932  0.88083288  0.71620769    -0.15300
F792        F  0.43499338  0.78577657  0.69274354    -0.12900
C793        C  0.23334840  0.63430156  0.72543956     0.25100
C794        C  0.26145724  0.63384507  0.75639436    -0.23000
C795        C  0.24993944  0.61459868  0.79972228     0.20000
C796        C  0.21128484  0.59651448  0.81212610     0.25100
C797        C  0.18336035  0.59741547  0.78164581    -0.22900
C798        C  0.19430001  0.61563969  0.73770300     0.20000
F799        F  0.16763894  0.61652170  0.70753012    -0.12900
F800        F  0.24382146  0.65301271  0.68359834    -0.15300
F801        F  0.20080942  0.57711756  0.85357227    -0.15300
F802        F  0.27668376  0.61491599  0.83122099    -0.12900
C803        C  0.35330774  0.58235053  0.51041378     0.25100
C804        C  0.37363467  0.62444526  0.99130708    -0.23000
C805        C  0.41282151  0.64223320  0.97842270     0.20000
C806        C  0.43237814  0.62175348  0.98949105     0.25100
C807        C  0.41193621  0.58059631  0.00910891    -0.22900
C808        C  0.37153712  0.55967126  0.51645873     0.20000
F809        F  0.35000594  0.01777266  0.53144910    -0.12900
F810        F  0.31675283  0.56394314  0.52639287    -0.15300
F811        F  0.47101557  0.64156277  0.98003546    -0.15300
F812        F  0.43238868  0.67924493  0.95478705    -0.12900
C813        C  0.41790616  0.80174547  0.55304324     0.25100
C814        C  0.38969912  0.77752143  0.50939258    -0.23000
C815        C  0.38550549  0.80309013  0.47785059     0.20000
C816        C  0.40909206  0.85215415  0.48987128     0.25100
C817        C  0.43728567  0.87655291  0.53384567    -0.22900
C818        C  0.44132933  0.85060333  0.56525459     0.20000
F819        F  0.46724405  0.87233177  0.60869758    -0.12900
F820        F  0.42185731  0.77793682  0.58485925    -0.15300
F821        F  0.40480829  0.87569353  0.45800137    -0.15300
F822        F  0.35889687  0.78047381  0.93499351    -0.12900
C823        C  0.24245647  0.60416142  0.53931712     0.25100
C824        C  0.25371111  0.62848929  0.49940418    -0.23000
C825        C  0.22574721  0.63298413  0.97419714     0.20000
C826        C  0.18679183  0.61227905  0.48791526     0.25100
C827        C  0.17597675  0.58846568  0.52822167    -0.22900
C828        C  0.20421532  0.58481308  0.55385989     0.20000
F829        F  0.19460567  0.56190494  0.59283737    -0.12900
F830        F  0.26923038  0.60081195  0.56578392    -0.15300
F831        F  0.16013143  0.61666574  0.96292848    -0.15300
F832        F  0.23625929  0.65762136  0.93666722    -0.12900
C833        C  0.85536450  0.15091528  0.98802097     0.04700
C834        C  0.81293548  0.12750584  0.98129965    -0.11500
C835        C  0.79597323  0.15245456  0.98830737     0.02200
C836        C  0.82120775  0.20134934  0.99447200    -0.10000
C837        C  0.86334661  0.22557467  0.99819927     0.04600
C838        C  0.88021046  0.20041334  0.99677780    -0.09400
H839        H  0.79251754  0.08968022  0.97317120     0.10200
H840        H  0.80836957  0.22083155  0.00033006     0.07800
H841        H  0.91280193  0.22001120  0.00445971     0.07600
C842        C  0.86435480  0.15828009  0.24880154     0.04700
C843        C  0.82227976  0.13366090  0.24776199    -0.11500
C844        C  0.80387175  0.15691921  0.24663614     0.02200
C845        C  0.82778388  0.20478583  0.24494923    -0.10000
C846        C  0.87007031  0.23013995  0.24745646     0.04600
C847        C  0.88807542  0.20639785  0.24818570    -0.09400
H848        H  0.80419625  0.09695901  0.25063734     0.10200
H849        H  0.81383616  0.22312711  0.24573798     0.07800
H850        H  0.92081115  0.22596135  0.25253678     0.07600
C851        C  0.66927393  0.38942639  0.16250137     0.04700
C852        C  0.64762113  0.34087272  0.15707413    -0.11500
C853        C  0.66739331  0.31929582  0.15431358     0.02200
C854        C  0.70990359  0.34729447  0.15702179    -0.10000
C855        C  0.73322287  0.39693107  0.16550747     0.04600
C856        C  0.71194599  0.41743539  0.17013590    -0.09200
H857        H  0.61476225  0.31947429  0.15147749     0.10200
H858        H  0.72426063  0.32972712  0.15071188     0.07800
H859        H  0.72785403  0.45494492  0.17740815     0.07600
C860        C  0.67501260  0.39234033  0.38768388     0.04700
C861        C  0.71610715  0.41359476  0.38436048    -0.11500
C862        C  0.73212248  0.38777937  0.38613533     0.02200
C863        C  0.70679755  0.34098291  0.39184116    -0.10000
C864        C  0.66550614  0.31938704  0.39374731     0.04600
C865        C  0.65005930  0.34564886  0.39334432    -0.09400
H866        H  0.73484690  0.44909039  0.37747362     0.10200
H867        H  0.71872427  0.32051928  0.39163979     0.07800
H868        H  0.61796303  0.32893045  0.39431057     0.07600
C869        C  0.63561609  0.06701776  0.04417996     0.78000
Tb870      Tb  0.96673743  0.02271392  0.07201107     1.80700
O871        O  0.63038695  0.06666630  0.08928417    -0.50000
O872        O  0.58961424  0.50402393  0.13767585    -0.57500
C873        C  0.56157571  0.11622556  0.10200660     0.93800
O874        O  0.96673974  0.08549343  0.05332706    -0.57000
Tb875      Tb  0.55930220  0.02022346  0.07662189     1.78100
O876        O  0.90415825  0.46225474  0.09380750    -0.57500
O877        O  0.49591575  0.44923246  0.07647734    -0.76300
O878        O  0.57498810  0.09513125  0.07958259    -0.75600
O879        O  0.52749172  0.99932891  0.49477952    -0.60900
C880        C  0.96303259  0.42860697  0.04692000     0.93400
O881        O  0.48315307  0.00618147  0.14528700    -0.72900
C882        C  0.89793507  0.98834653  0.12151354     0.76800
C883        C  0.58598496  0.46973870  0.11091716     0.77800
O884        O  0.60290799  0.04548343  0.01469864    -0.58100
O885        O  0.56708994  0.45900441  0.06789254    -0.50100
O886        O  0.49857486  0.03690084  0.99973991    -0.76100
O887        O  0.55019340  0.04591663  0.15469109    -0.60100
C888        C  0.51691233  0.02613000  0.17236752     0.91600
C889        C  0.51465749  0.01990489  0.47543412     0.92800
C890        C  0.93286262  0.06094895  0.52590594     0.77200
O891        O  0.92635559  0.03124360  0.12580885    -0.49400
O892        O  0.91694332  0.51759381  0.01879326    -0.50600
O893        O  0.95185754  0.45151375  0.02934672    -0.63400
O894        O  0.52577444  0.09430605  0.11341989    -0.64600
C895        C  0.64266545  0.07731052  0.29562871     0.78000
Tb896      Tb  0.97345217  0.02426841  0.32260166     1.80700
O897        O  0.63660396  0.08176183  0.34023928    -0.50000
O898        O  0.60410051  0.51557486  0.37846443    -0.57500
C899        C  0.56579216  0.11806950  0.35165213     0.93800
O900        O  0.95800828  0.07831200  0.34030067    -0.57000
Tb901      Tb  0.56582900  0.02773538  0.32572594     1.78100
O902        O  0.90439354  0.46155520  0.30604638    -0.57500
O903        O  0.50888569  0.45602243  0.28166577    -0.76300
O904        O  0.57750570  0.09616025  0.36995487    -0.75600
O905        O  0.55082194  0.04716405  0.25356676    -0.60900
C906        C  0.97482717  0.43285388  0.29727926     0.93400
O907        O  0.50544565  0.04512999  0.40408073    -0.72900
C908        C  0.89579554  0.97113646  0.34765794     0.76800
C909        C  0.59537140  0.47842710  0.35176108     0.77800
O910        O  0.61042630  0.05088885  0.26521317    -0.58100
O911        O  0.57004367  0.46433969  0.31354302    -0.50100
O912        O  0.98351342  0.00422913  0.24275806    -0.76100
O913        O  0.53372761  0.00725366  0.39751996    -0.60100
C914        C  0.51803018  0.02415520  0.42282329     0.91600
C915        C  0.51709608  0.02587113  0.22575202     0.92800
C916        C  0.94398986  0.07399431  0.29641002     0.77200
O917        O  0.92607825  0.00513318  0.37739109    -0.49400
O918        O  0.94606141  0.54631581  0.26485185    -0.50600
O919        O  0.96395599  0.45339604  0.32631239    -0.63400
O920        O  0.53381898  0.09638393  0.32065306    -0.64600
C921        C  0.64529526  0.24360987  0.41633977     0.25100
C922        C  0.63770183  0.26804758  0.38707794    -0.23000
C923        C  0.60541851  0.24300754  0.34768135     0.20000
C924        C  0.58161736  0.19437206  0.33695308     0.25100
C925        C  0.58986608  0.16958956  0.36514505    -0.22900
C926        C  0.62156902  0.19472744  0.40551374     0.20000
F927        F  0.62978506  0.17219660  0.43449414    -0.12900
F928        F  0.67589789  0.26714047  0.45516722    -0.15300
F929        F  0.55140942  0.17189792  0.29766956    -0.15300
F930        F  0.59812877  0.26565859  0.31766610    -0.12900
C931        C  0.80591642  0.45278760  0.40347944     0.25100
C932        C  0.77423190  0.40809724  0.37743862    -0.23000
C933        C  0.78289358  0.38341814  0.34198074     0.20000
C934        C  0.82271830  0.40310618  0.33319443     0.25100
C935        C  0.85428252  0.44785437  0.35931870    -0.22900
C936        C  0.84550822  0.97254560  0.39419189     0.20000
F937        F  0.87503820  0.01705363  0.41711647    -0.12900
F938        F  0.79846026  0.97755151  0.43749537    -0.15300
F939        F  0.83027900  0.37876175  0.29869500    -0.15300
F940        F  0.75265715  0.34108519  0.31434866    -0.12900
C941        C  0.64400680  0.47403338  0.40493171     0.25100
C942        C  0.61497053  0.45569768  0.36227528    -0.23000
C943        C  0.60708057  0.41745497  0.32765640     0.20000
C944        C  0.62780336  0.39805515  0.33545867     0.25100
C945        C  0.65629583  0.41603362  0.37822175    -0.22900
C946        C  0.66467829  0.45438690  0.41269229     0.20000
F947        F  0.69220212  0.47208835  0.45423512    -0.12900
F948        F  0.65235512  0.51078755  0.43921317    -0.15300
F949        F  0.62031122  0.36177358  0.30098234    -0.15300
F950        F  0.57956890  0.39893110  0.28594854    -0.12900
C951        C  0.60946743  0.24080033  0.16945782     0.25100
C952        C  0.64246636  0.26714215  0.14342597    -0.23000
C953        C  0.64886624  0.24329970  0.10397203     0.20000
C954        C  0.62264763  0.19440288  0.09051853     0.25100
C955        C  0.58930734  0.16811976  0.11618907    -0.22900
C956        C  0.58311808  0.19197627  0.15585768     0.20000
F957        F  0.55166790  0.16810243  0.18190085    -0.12900
F958        F  0.60251771  0.26240882  0.20814393    -0.15300
F959        F  0.62906154  0.17305902  0.05091118    -0.15300
F960        F  0.67924333  0.26736456  0.07656735    -0.12900
C961        C  0.80148368  0.40898182  0.17588822     0.25100
C962        C  0.77862785  0.42594117  0.16400179    -0.23000
C963        C  0.79960047  0.46924332  0.14702785     0.20000
C964        C  0.84029897  0.99232926  0.13970856     0.25100
C965        C  0.85980801  0.47058492  0.14311125    -0.22900
C966        C  0.84066659  0.42962580  0.16304484     0.20000
F967        F  0.86020652  0.40991932  0.17079770    -0.12900
F968        F  0.78625562  0.37239194  0.19998525    -0.15300
F969        F  0.85984340  0.03488129  0.12627193    -0.15300
F970        F  0.78081624  0.98855285  0.13405889    -0.12900
C971        C  0.61985503  0.39029502  0.10685187     0.25100
C972        C  0.64673946  0.40922024  0.15170991    -0.23000
C973        C  0.65193854  0.44678473  0.18449591     0.20000
C974        C  0.63104555  0.46545008  0.17221422     0.25100
C975        C  0.60460662  0.44690893  0.12686285    -0.22900
C976        C  0.59894229  0.40869503  0.09471475     0.20000
F977        F  0.57395100  0.38970158  0.05062959    -0.12900
F978        F  0.61493858  0.35485890  0.07353222    -0.15300
F979        F  0.63765850  0.00252195  0.20412290    -0.15300
F980        F  0.67715528  0.96536444  0.22835181    -0.12900
C981        C  0.90724710  0.13076031  0.22591685     0.25100
C982        C  0.88432487  0.13592270  0.25970598    -0.23000
C983        C  0.88227168  0.12203312  0.30591342     0.20000
C984        C  0.90276919  0.10322203  0.31823952     0.25100
C985        C  0.92492952  0.09692499  0.28408654    -0.22900
C986        C  0.92725861  0.11108554  0.23793489     0.20000
F987        F  0.94998027  0.10731515  0.20532573    -0.12900
F988        F  0.90996572  0.14445778  0.18128918    -0.15300
F989        F  0.90024712  0.09029627  0.36327581    -0.15300
F990        F  0.86096415  0.12755198  0.33956745    -0.12900
C991        C  0.88911227  0.30606192  0.29658892     0.25100
C992        C  0.89574345  0.28206595  0.25764743    -0.23000
C993        C  0.92818497  0.30797178  0.23093538     0.20000
C994        C  0.95375787  0.35700641  0.24324511     0.25100
C995        C  0.94741407  0.38102031  0.28274841    -0.22900
C996        C  0.91435131  0.35481239  0.30875161     0.20000
F997        F  0.90677916  0.37607006  0.34708835    -0.12900
F998        F  0.85908592  0.28224793  0.32454356    -0.15300
F999        F  0.98446956  0.38083285  0.21620896    -0.15300
F1000       F  0.93499367  0.28577657  0.19274481    -0.12900
C1001       C  0.73334887  0.13430181  0.22543994     0.25100
C1002       C  0.76145751  0.13384508  0.25639487    -0.23000
C1003       C  0.74993938  0.11459829  0.29972250     0.20000
C1004       C  0.71128470  0.09651407  0.31212601     0.25100
C1005       C  0.68336045  0.09741537  0.28164566    -0.22900
C1006       C  0.69430037  0.11563985  0.23770304     0.20000
F1007       F  0.66763947  0.11652202  0.20753004    -0.12900
F1008       F  0.74382219  0.15301317  0.18359887    -0.15300
F1009       F  0.70080897  0.07711684  0.35357195    -0.15300
F1010       F  0.77668347  0.11491527  0.33122126    -0.12900
C1011       C  0.85330763  0.08235038  0.01041278     0.25100
C1012       C  0.87363499  0.12444507  0.49130670    -0.23000
C1013       C  0.91282185  0.14223305  0.47842234     0.20000
C1014       C  0.93237844  0.12175321  0.48949049     0.25100
C1015       C  0.91193642  0.08059586  0.50910803    -0.22900
C1016       C  0.87153696  0.05967100  0.01645736     0.20000
F1017       F  0.85000562  0.51777256  0.03145004    -0.12900
F1018       F  0.81675274  0.06394290  0.02639193    -0.15300
F1019       F  0.97101588  0.14156254  0.48003496    -0.15300
F1020       F  0.93238907  0.17924493  0.45478690    -0.12900
C1021       C  0.91790582  0.30174553  0.05304310     0.25100
C1022       C  0.88969894  0.27752157  0.00939232    -0.23000
C1023       C  0.88550525  0.30309032  0.97785045     0.20000
C1024       C  0.90909176  0.35215435  0.98987128     0.25100
C1025       C  0.93728533  0.37655302  0.03384572    -0.22900
C1026       C  0.94132891  0.35060337  0.06525462     0.20000
F1027       F  0.96724353  0.37233173  0.10869769    -0.12900
F1028       F  0.92185684  0.27793680  0.08485913    -0.15300
F1029       F  0.90480801  0.37569382  0.95800147    -0.15300
F1030       F  0.85889690  0.28047373  0.43499384    -0.12900
C1031       C  0.74245690  0.10416265  0.03931810     0.25100
C1032       C  0.75371115  0.12848958  0.99940442    -0.23000
C1033       C  0.72574744  0.13298371  0.47419683     0.20000
C1034       C  0.68679159  0.11227849  0.98791495     0.25100
C1035       C  0.67597688  0.08846610  0.02822213    -0.22900
C1036       C  0.70421582  0.08481449  0.05386109     0.20000
F1037       F  0.69460655  0.06190729  0.09283929    -0.12900
F1038       F  0.76923110  0.10081390  0.06578533    -0.15300
F1039       F  0.66013162  0.11666516  0.46292791    -0.15300
F1040       F  0.73625950  0.15762075  0.43666675    -0.12900
C1041       C  0.85536470  0.15091533  0.48802189     0.04700
C1042       C  0.81293568  0.12750571  0.48130050    -0.11500
C1043       C  0.79597327  0.15245423  0.48830841     0.02200
C1044       C  0.82120766  0.20134905  0.49447331    -0.10000
C1045       C  0.86334655  0.22557458  0.49820047     0.04600
C1046       C  0.88021052  0.20041339  0.49677876    -0.09400
H1047       H  0.79251785  0.08968007  0.47317181     0.10200
H1048       H  0.80836937  0.22083112  0.50033152     0.07800
H1049       H  0.91280202  0.22001133  0.50446049     0.07600
C1050       C  0.86435478  0.15828040  0.74880098     0.04700
C1051       C  0.82227970  0.13366091  0.74776134    -0.11500
C1052       C  0.80387137  0.15691883  0.74663475     0.02200
C1053       C  0.82778321  0.20478531  0.74494719    -0.10000
C1054       C  0.87006969  0.23013981  0.74745482     0.04600
C1055       C  0.88807513  0.20639809  0.74818478    -0.09400
H1056       H  0.80419641  0.09695914  0.75063712     0.10200
H1057       H  0.81383519  0.22312623  0.74573521     0.07800
H1058       H  0.92081088  0.22596184  0.75253608     0.07600
C1059       C  0.66927372  0.38942596  0.66250103     0.04700
C1060       C  0.64762090  0.34087228  0.65707373    -0.11500
C1061       C  0.66739297  0.31929527  0.65431245     0.02200
C1062       C  0.70990319  0.34729378  0.65702034    -0.10000
C1063       C  0.73322257  0.39693037  0.66550637     0.04600
C1064       C  0.71194581  0.41743484  0.67013520    -0.09200
H1065       H  0.61476200  0.31947388  0.65147758     0.10200
H1066       H  0.72426012  0.32972633  0.65070997     0.07800
H1067       H  0.72785394  0.45494438  0.67740754     0.07600
C1068       C  0.67501319  0.39234098  0.88768547     0.04700
C1069       C  0.71610778  0.41359557  0.88436212    -0.11500
C1070       C  0.73212313  0.38778015  0.88613652     0.02200
C1071       C  0.70679823  0.34098358  0.89184200    -0.10000
C1072       C  0.66550679  0.31938759  0.89374806     0.04600
C1073       C  0.65005989  0.34564937  0.89334538    -0.09400
H1074       H  0.73484750  0.44909128  0.87747554     0.10200
H1075       H  0.71872497  0.32051995  0.89164036     0.07800
H1076       H  0.61796360  0.32893084  0.89431145     0.07600
C1077       C  0.63561595  0.06701739  0.54418002     0.78000
Tb1078     Tb  0.96673766  0.02271380  0.57201137     1.80700
O1079       O  0.63038682  0.06666625  0.58928426    -0.50000
O1080       O  0.58961510  0.50402474  0.63767575    -0.57500
C1081       C  0.56157567  0.11622506  0.60200618     0.93800
O1082       O  0.96674029  0.08549351  0.55332727    -0.57000
Tb1083     Tb  0.55930208  0.02022309  0.57662181     1.78100
O1084       O  0.90415848  0.46225415  0.59380691    -0.57500
O1085       O  0.49591622  0.44923266  0.57647721    -0.76300
O1086       O  0.57498786  0.09513073  0.57958172    -0.75600
O1087       O  0.52749196  0.99932933  0.99477953    -0.60900
C1088       C  0.96303292  0.42860708  0.54692007     0.93400
O1089       O  0.48315307  0.00618080  0.64528699    -0.72900
C1090       C  0.89793565  0.98834717  0.62151430     0.76800
C1091       C  0.58598513  0.46973890  0.61091747     0.77800
O1092       O  0.60290788  0.04548280  0.51469860    -0.58100
O1093       O  0.56708965  0.45900415  0.56789305    -0.50100
O1094       O  0.49857482  0.03690059  0.49974006    -0.76100
O1095       O  0.55019341  0.04591623  0.65469117    -0.60100
C1096       C  0.51691235  0.02612974  0.67236762     0.91600
C1097       C  0.51465768  0.01990525  0.97543408     0.92800
C1098       C  0.93286221  0.06094878  0.02590540     0.77200
O1099       O  0.92635651  0.03124415  0.62580984    -0.49400
O1100       O  0.91694345  0.51759329  0.51879246    -0.50600
O1101       O  0.95185800  0.45151380  0.52934635    -0.63400
O1102       O  0.52577459  0.09430556  0.61342006    -0.64600
C1103       C  0.64266512  0.07731007  0.79562756     0.78000
Tb1104     Tb  0.97345210  0.02426864  0.82260180     1.80700
O1105       O  0.63660388  0.08176200  0.84023816    -0.50000
O1106       O  0.60410035  0.51557465  0.87846543    -0.57500
C1107       C  0.56579226  0.11806993  0.85165261     0.93800
O1108       O  0.95800758  0.07831165  0.84030089    -0.57000
Tb1109     Tb  0.56582892  0.02773549  0.82572556     1.78100
O1110       O  0.90439386  0.46155573  0.80604648    -0.57500
O1111       O  0.50888579  0.45602226  0.78166592    -0.76300
O1112       O  0.57750603  0.09616059  0.86995465    -0.75600
O1113       O  0.55082194  0.04716497  0.75356710    -0.60900
C1114       C  0.97482688  0.43285374  0.79727850     0.93400
O1115       O  0.50544580  0.04513025  0.90408068    -0.72900
C1116       C  0.89579543  0.97113636  0.84765788     0.76800
C1117       C  0.59537129  0.47842686  0.85176225     0.77800
O1118       O  0.61042583  0.05088803  0.76521231    -0.58100
O1119       O  0.57004364  0.46433938  0.81354410    -0.50100
O1120       O  0.98351346  0.00422935  0.74275822    -0.76100
O1121       O  0.53372802  0.00725418  0.89752000    -0.60100
C1122       C  0.51803044  0.02415557  0.92282327     0.91600
C1123       C  0.51709609  0.02587145  0.72575221     0.92800
C1124       C  0.94398990  0.07399470  0.79641010     0.77200
O1125       O  0.92607806  0.00513310  0.87739112    -0.49400
O1126       O  0.94606049  0.54631491  0.76485205    -0.50600
O1127       O  0.96395584  0.45339599  0.82631176    -0.63400
O1128       O  0.53381867  0.09638454  0.82065429    -0.64600
C1129       C  0.64529566  0.24361025  0.91634036     0.25100
C1130       C  0.63770251  0.26804810  0.88707839    -0.23000
C1131       C  0.60541932  0.24300818  0.84768164     0.20000
C1132       C  0.58161802  0.19437269  0.83695337     0.25100
C1133       C  0.58986642  0.16959004  0.86514552    -0.22900
C1134       C  0.62156922  0.19472779  0.90551438     0.20000
F1135       F  0.62978485  0.17219680  0.93449507    -0.12900
F1136       F  0.67589810  0.26714076  0.95516804    -0.15300
F1137       F  0.55141017  0.17189866  0.79766975    -0.15300
F1138       F  0.59812981  0.26565938  0.81766635    -0.12900
C1139       C  0.80591713  0.45278826  0.90348054     0.25100
C1140       C  0.77423251  0.40809806  0.87743949    -0.23000
C1141       C  0.78289402  0.38341918  0.84198105     0.20000
C1142       C  0.82271867  0.40310726  0.83319442     0.25100
C1143       C  0.85428301  0.44785527  0.85931895    -0.22900
C1144       C  0.84550783  0.97254548  0.89419111     0.20000
F1145       F  0.87503760  0.01705378  0.91711519    -0.12900
F1146       F  0.79845955  0.97755145  0.93749370    -0.15300
F1147       F  0.83027917  0.37876308  0.79869434    -0.15300
F1148       F  0.75265749  0.34108636  0.81434881    -0.12900
C1149       C  0.64400598  0.47403269  0.90493382     0.25100
C1150       C  0.61497051  0.45569757  0.86227665    -0.23000
C1151       C  0.60708165  0.41745582  0.82765712     0.20000
C1152       C  0.62780466  0.39805629  0.83545955     0.25100
C1153       C  0.65629631  0.41603414  0.87822336    -0.22900
C1154       C  0.66467776  0.45438655  0.91269451     0.20000
F1155       F  0.69220095  0.47208756  0.95423792    -0.12900
F1156       F  0.65235317  0.51078588  0.93921595    -0.15300
F1157       F  0.62031355  0.36177563  0.80098265    -0.15300
F1158       F  0.57957096  0.39893272  0.78594840    -0.12900
C1159       C  0.60946755  0.24079986  0.66945725     0.25100
C1160       C  0.64246601  0.26714164  0.64342476    -0.23000
C1161       C  0.64886551  0.24329920  0.60397036     0.20000
C1162       C  0.62264703  0.19440234  0.59051714     0.25100
C1163       C  0.58930723  0.16811925  0.61618838    -0.22900
C1164       C  0.58311833  0.19197578  0.65585740     0.20000
F1165       F  0.55166869  0.16810195  0.68190132    -0.12900
F1166       F  0.60251825  0.26240839  0.70814380    -0.15300
F1167       F  0.62906059  0.17305842  0.55090945    -0.15300
F1168       F  0.67924210  0.26736407  0.57656504    -0.12900
C1169       C  0.80148319  0.40898064  0.67588664     0.25100
C1170       C  0.77862752  0.42594029  0.66400059    -0.23000
C1171       C  0.79960024  0.46924253  0.64702691     0.20000
C1172       C  0.84029978  0.99233022  0.63970971     0.25100
C1173       C  0.85980764  0.47058385  0.64310993    -0.22900
C1174       C  0.84066607  0.42962454  0.66304318     0.20000
F1175       F  0.86020585  0.40991782  0.67079569    -0.12900
F1176       F  0.78625504  0.37239063  0.69998347    -0.15300
F1177       F  0.85984426  0.03488231  0.62627318    -0.15300
F1178       F  0.78081708  0.98855383  0.63406005    -0.12900
C1179       C  0.61985387  0.39029403  0.60685266     0.25100
C1180       C  0.64673921  0.40921990  0.65171000    -0.23000
C1181       C  0.65193910  0.44678509  0.68449564     0.20000
C1182       C  0.63104618  0.46545060  0.67221414     0.25100
C1183       C  0.60460655  0.44690894  0.62686331    -0.22900
C1184       C  0.59894126  0.40869422  0.59471574     0.20000
F1185       F  0.57394908  0.38970007  0.55063124    -0.12900
F1186       F  0.61493634  0.35485702  0.57353340    -0.15300
F1187       F  0.63765674  0.00251992  0.70412348    -0.15300
F1188       F  0.67715378  0.96536274  0.72835245    -0.12900
C1189       C  0.90724735  0.13076087  0.72591665     0.25100
C1190       C  0.88432512  0.13592334  0.75970570    -0.23000
C1191       C  0.88227194  0.12203386  0.80591320     0.20000
C1192       C  0.90276944  0.10322279  0.81823946     0.25100
C1193       C  0.92492974  0.09692560  0.78408654    -0.22900
C1194       C  0.92725888  0.11108614  0.73793485     0.20000
F1195       F  0.94998054  0.10731569  0.70532575    -0.12900
F1196       F  0.90996590  0.14445812  0.68128885    -0.15300
F1197       F  0.90024727  0.09029708  0.86327578    -0.15300
F1198       F  0.86096432  0.12755268  0.83956712    -0.12900
C1199       C  0.88911060  0.30606185  0.79658595     0.25100
C1200       C  0.89574255  0.28206585  0.75764541    -0.23000
C1201       C  0.92818469  0.30797173  0.73093421     0.20000
C1202       C  0.95375764  0.35700635  0.74324414     0.25100
C1203       C  0.94741332  0.38102023  0.78274685    -0.22900
C1204       C  0.91434971  0.35481231  0.80874884     0.20000
F1205       F  0.90677689  0.37606995  0.84708480    -0.12900
F1206       F  0.85908349  0.28224792  0.82453965    -0.15300
F1207       F  0.98447000  0.38083282  0.71620887    -0.15300
F1208       F  0.93499411  0.28577658  0.69274444    -0.12900
C1209       C  0.73334825  0.13430070  0.72543822     0.25100
C1210       C  0.76145711  0.13384456  0.75639348    -0.23000
C1211       C  0.74993918  0.11459833  0.79972145     0.20000
C1212       C  0.71128449  0.09651400  0.81212492     0.25100
C1213       C  0.68336003  0.09741475  0.78164429    -0.22900
C1214       C  0.69429974  0.11563868  0.73770133     0.20000
F1215       F  0.66763863  0.11652027  0.70752802    -0.12900
F1216       F  0.74382140  0.15301160  0.68359686    -0.15300
F1217       F  0.70080892  0.07711719  0.85357114    -0.15300
F1218       F  0.77668351  0.11491607  0.83122065    -0.12900
C1219       C  0.85330803  0.08235059  0.51041376     0.25100
C1220       C  0.87363468  0.12444489  0.99130576    -0.23000
C1221       C  0.91282156  0.14223282  0.97842147     0.20000
C1222       C  0.93237807  0.12175291  0.98948968     0.25100
C1223       C  0.91193599  0.08059556  0.00910721    -0.22900
C1224       C  0.87153742  0.05967129  0.51645831     0.20000
F1225       F  0.85000555  0.51777200  0.53144908    -0.12900
F1226       F  0.81675311  0.06394299  0.52639288    -0.15300
F1227       F  0.97101557  0.14156226  0.98003436    -0.15300
F1228       F  0.93238895  0.17924481  0.95478622    -0.12900
C1229       C  0.91790638  0.30174571  0.55304353     0.25100
C1230       C  0.88969877  0.27752153  0.50939340    -0.23000
C1231       C  0.88550442  0.30309012  0.47785197     0.20000
C1232       C  0.90909102  0.35215417  0.48987253     0.25100
C1233       C  0.93728550  0.37655308  0.53384619    -0.22900
C1234       C  0.94132965  0.35060358  0.56525473     0.20000
F1235       F  0.96724502  0.37233211  0.60869719    -0.12900
F1236       F  0.92185806  0.27793720  0.58485922    -0.15300
F1237       F  0.90480642  0.37569339  0.45800319    -0.15300
F1238       F  0.85889852  0.28047409  0.93499166    -0.12900
C1239       C  0.74245616  0.10416066  0.53931758     0.25100
C1240       C  0.75371102  0.12848892  0.49940493    -0.23000
C1241       C  0.72574712  0.13298332  0.97419566     0.20000
C1242       C  0.68679191  0.11227904  0.48791602     0.25100
C1243       C  0.67597669  0.08846552  0.52822229    -0.22900
C1244       C  0.70421502  0.08481247  0.55386035     0.20000
F1245       F  0.69460511  0.06190397  0.59283756    -0.12900
F1246       F  0.76922982  0.10081064  0.56578408    -0.15300
F1247       F  0.66013078  0.11666334  0.96292600    -0.15300
F1248       F  0.73625872  0.15761943  0.93666479    -0.12900
C1249       C  0.85536422  0.65091506  0.98802181     0.04700
C1250       C  0.81293522  0.62750551  0.98130041    -0.11500
C1251       C  0.79597288  0.65245412  0.98830832     0.02200
C1252       C  0.82120734  0.70134894  0.99447316    -0.10000
C1253       C  0.86334622  0.72557438  0.99820027     0.04600
C1254       C  0.88021012  0.70041311  0.99677863    -0.09400
H1255       H  0.79251737  0.58967988  0.97317177     0.10200
H1256       H  0.80836913  0.72083109  0.00033137     0.07800
H1257       H  0.91280160  0.72001098  0.00446034     0.07600
C1258       C  0.86435442  0.65828004  0.24879987     0.04700
C1259       C  0.82227938  0.63366080  0.24776036    -0.11500
C1260       C  0.80387120  0.65691887  0.24663379     0.02200
C1261       C  0.82778314  0.70478530  0.24494594    -0.10000
C1262       C  0.87006961  0.73013959  0.24745337     0.04600
C1263       C  0.88807489  0.70639770  0.24818339    -0.09400
H1264       H  0.80419597  0.59695905  0.25063631     0.10200
H1265       H  0.81383525  0.72312636  0.24573404     0.07800
H1266       H  0.92081062  0.72596134  0.25253461     0.07600
C1267       C  0.66927365  0.88942629  0.16250227     0.04700
C1268       C  0.64762089  0.84087265  0.15707569    -0.11500
C1269       C  0.66739302  0.81929569  0.15431443     0.02200
C1270       C  0.70990320  0.84729421  0.15702175    -0.10000
C1271       C  0.73322252  0.89693075  0.16550711     0.04600
C1272       C  0.71194575  0.91743521  0.17013586    -0.09200
H1273       H  0.61476200  0.81947423  0.15147996     0.10200
H1274       H  0.72426013  0.82972676  0.15071139     0.07800
H1275       H  0.72785387  0.95494475  0.17740766     0.07600
C1276       C  0.67501351  0.89234148  0.38768614     0.04700
C1277       C  0.71610801  0.91359588  0.38436235    -0.11500
C1278       C  0.73212321  0.88778025  0.38613616     0.02200
C1279       C  0.70679822  0.84098364  0.39184149    -0.10000
C1280       C  0.66550684  0.81938783  0.39374798     0.04600
C1281       C  0.65006012  0.84564981  0.39334583    -0.09400
H1282       H  0.73484776  0.94909162  0.37747584     0.10200
H1283       H  0.71872483  0.82051985  0.39163947     0.07800
H1284       H  0.61796385  0.82893140  0.39431209     0.07600
C1285       C  0.63561570  0.56701764  0.04418026     0.78000
Tb1286     Tb  0.96673761  0.52271420  0.07201207     1.80700
O1287       O  0.63038667  0.56666620  0.08928450    -0.50000
O1288       O  0.58961449  0.00402439  0.13767584    -0.57500
C1289       C  0.56157575  0.61622556  0.10200792     0.93800
O1290       O  0.96674005  0.58549382  0.05332808    -0.57000
Tb1291     Tb  0.55930198  0.52022340  0.07662234     1.78100
O1292       O  0.90415832  0.96225411  0.09380686    -0.57500
O1293       O  0.49591589  0.94923252  0.07647697    -0.76300
O1294       O  0.57498809  0.59513131  0.07958365    -0.75600
O1295       O  0.52749234  0.49932991  0.49477983    -0.60900
C1296       C  0.96303263  0.92860689  0.04691960     0.93400
O1297       O  0.48315281  0.50618076  0.14528739    -0.72900
C1298       C  0.89793559  0.48834730  0.12151503     0.76800
C1299       C  0.58598488  0.96973877  0.11091759     0.77800
O1300       O  0.60290760  0.54548346  0.01469898    -0.58100
O1301       O  0.56708974  0.95900414  0.06789296    -0.50100
O1302       O  0.49857493  0.53690142  0.99974070    -0.76100
O1303       O  0.55019315  0.54591621  0.15469173    -0.60100
C1304       C  0.51691205  0.52612969  0.17236809     0.91600
C1305       C  0.51465806  0.51990588  0.47543453     0.92800
C1306       C  0.93286233  0.56094861  0.52590605     0.77200
O1307       O  0.92635652  0.53124430  0.12581092    -0.49400
O1308       O  0.91694330  0.01759344  0.01879173    -0.50600
O1309       O  0.95185757  0.95151353  0.02934599    -0.63400
O1310       O  0.52577451  0.59430603  0.11342123    -0.64600
C1311       C  0.64266526  0.57731058  0.29562778     0.78000
Tb1312     Tb  0.97345181  0.52426865  0.32260222     1.80700
O1313       O  0.63660404  0.58176241  0.34023841    -0.50000
O1314       O  0.60410042  0.01557478  0.37846540    -0.57500
C1315       C  0.56579218  0.61807019  0.35165277     0.93800
O1316       O  0.95800670  0.57831118  0.34030092    -0.57000
Tb1317     Tb  0.56582904  0.52773591  0.32572579     1.78100
O1318       O  0.90439386  0.96155517  0.30604596    -0.57500
O1319       O  0.50888595  0.95602199  0.28166518    -0.76300
O1320       O  0.57750602  0.59616093  0.36995483    -0.75600
O1321       O  0.55082166  0.54716529  0.25356757    -0.60900
C1322       C  0.97482715  0.93285348  0.29727766     0.93400
O1323       O  0.50544580  0.54513061  0.40408109    -0.72900
C1324       C  0.89579512  0.47113626  0.34765839     0.76800
C1325       C  0.59537151  0.97842702  0.35176232     0.77800
O1326       O  0.61042595  0.55088863  0.26521256    -0.58100
O1327       O  0.57004396  0.96433946  0.31354400    -0.50100
O1328       O  0.98351317  0.50422906  0.24275874    -0.76100
O1329       O  0.53372839  0.50725494  0.39752043    -0.60100
C1330       C  0.51803069  0.52415617  0.42282369     0.91600
C1331       C  0.51709578  0.52587142  0.22575267     0.92800
C1332       C  0.94398945  0.57399444  0.29640996     0.77200
O1333       O  0.92607776  0.50513304  0.37739159    -0.49400
O1334       O  0.94606072  0.04631478  0.26485187    -0.50600
O1335       O  0.96395611  0.95339560  0.32631111    -0.63400
O1336       O  0.53381849  0.59638473  0.32065459    -0.64600
C1337       C  0.64529571  0.74361052  0.41634021     0.25100
C1338       C  0.63770246  0.76804836  0.38707837    -0.23000
C1339       C  0.60541909  0.74300844  0.34768184     0.20000
C1340       C  0.58161775  0.69437293  0.33695360     0.25100
C1341       C  0.58986632  0.66959030  0.36514557    -0.22900
C1342       C  0.62156926  0.69472808  0.40551426     0.20000
F1343       F  0.62978496  0.67219710  0.43449488    -0.12900
F1344       F  0.67589821  0.76714102  0.45516780    -0.15300
F1345       F  0.55140969  0.67189885  0.29767022    -0.15300
F1346       F  0.59812935  0.76565964  0.31766682    -0.12900
C1347       C  0.80591727  0.95278818  0.40347992     0.25100
C1348       C  0.77423252  0.90809806  0.37743885    -0.23000
C1349       C  0.78289386  0.88341910  0.34198025     0.20000
C1350       C  0.82271849  0.90310695  0.33319363     0.25100
C1351       C  0.85428296  0.94785484  0.35931829    -0.22900
C1352       C  0.84550747  0.47254516  0.39419176     0.20000
F1353       F  0.87503721  0.51705340  0.41711600    -0.12900
F1354       F  0.79845910  0.47755106  0.43749423    -0.15300
F1355       F  0.83027887  0.87876263  0.29869355    -0.15300
F1356       F  0.75265721  0.84108642  0.31434789    -0.12900
C1357       C  0.64400530  0.97403223  0.40493499     0.25100
C1358       C  0.61497074  0.95569784  0.36227697    -0.23000
C1359       C  0.60708279  0.91745689  0.32765690     0.20000
C1360       C  0.62780585  0.89805748  0.33545955     0.25100
C1361       C  0.65629667  0.91603467  0.37822406    -0.22900
C1362       C  0.66467720  0.95438624  0.41269585     0.20000
F1363       F  0.69219951  0.97208647  0.45424004    -0.12900
F1364       F  0.65235139  0.01078443  0.43921781    -0.15300
F1365       F  0.62031555  0.86177753  0.30098220    -0.15300
F1366       F  0.57957296  0.89893448  0.28594742    -0.12900
C1367       C  0.60946773  0.74080024  0.16945948     0.25100
C1368       C  0.64246612  0.76714207  0.14342688    -0.23000
C1369       C  0.64886559  0.74329965  0.10397241     0.20000
C1370       C  0.62264713  0.69440283  0.09051916     0.25100
C1371       C  0.58930736  0.66811971  0.11619040    -0.22900
C1372       C  0.58311850  0.69197616  0.15585956     0.20000
F1373       F  0.55166884  0.66810224  0.18190342    -0.12900
F1374       F  0.60251848  0.76240874  0.20814612    -0.15300
F1375       F  0.62906066  0.67305896  0.05091136    -0.15300
F1376       F  0.67924209  0.76736453  0.07656697    -0.12900
C1377       C  0.80148322  0.90898120  0.17588710     0.25100
C1378       C  0.77862739  0.92594058  0.16400079    -0.23000
C1379       C  0.79959986  0.96924246  0.14702639     0.20000
C1380       C  0.84029969  0.49233029  0.13971041     0.25100
C1381       C  0.85980735  0.97058395  0.14310951    -0.22900
C1382       C  0.84066602  0.92962499  0.16304337     0.20000
F1383       F  0.86020596  0.90991852  0.17079627    -0.12900
F1384       F  0.78625529  0.87239151  0.19998439    -0.15300
F1385       F  0.85984427  0.53488249  0.12627415    -0.15300
F1386       F  0.78081692  0.48855379  0.13406035    -0.12900
C1387       C  0.61985319  0.89029350  0.10685399     0.25100
C1388       C  0.64673902  0.90922004  0.15171101    -0.23000
C1389       C  0.65193938  0.94678584  0.18449603     0.20000
C1390       C  0.63104642  0.96545122  0.17221425     0.25100
C1391       C  0.60460631  0.94690889  0.12686375    -0.22900
C1392       C  0.59894053  0.90869359  0.09471680     0.20000
F1393       F  0.57394787  0.88969879  0.05063262    -0.12900
F1394       F  0.61493525  0.85485594  0.07353526    -0.15300
F1395       F  0.63765639  0.50251959  0.20412390    -0.15300
F1396       F  0.67715323  0.46536207  0.22835256    -0.12900
C1397       C  0.90724798  0.63076163  0.22591650     0.25100
C1398       C  0.88432462  0.63592282  0.25970471    -0.23000
C1399       C  0.88227030  0.62203210  0.30591168     0.20000
C1400       C  0.90276779  0.60322109  0.31823821     0.25100
C1401       C  0.92492919  0.59692515  0.28408608    -0.22900
C1402       C  0.92725948  0.61108692  0.23793495     0.20000
F1403       F  0.94998234  0.60731786  0.20532679    -0.12900
F1404       F  0.90996767  0.64446013  0.18128927    -0.15300
F1405       F  0.90024465  0.59029432  0.36327407    -0.15300
F1406       F  0.86096169  0.62754976  0.33956491    -0.12900
C1407       C  0.88911086  0.80606159  0.29658496     0.25100
C1408       C  0.89574261  0.78206564  0.25764413    -0.23000
C1409       C  0.92818472  0.80797155  0.23093289     0.20000
C1410       C  0.95375777  0.85700617  0.24324295     0.25100
C1411       C  0.94741359  0.88101999  0.28274588    -0.22900
C1412       C  0.91435006  0.85481204  0.30874800     0.20000
F1413       F  0.90677739  0.87606962  0.34708420    -0.12900
F1414       F  0.85908390  0.78224762  0.32453885    -0.15300
F1415       F  0.98447009  0.88083269  0.21620764    -0.15300
F1416       F  0.93499402  0.78577642  0.19274298    -0.12900
C1417       C  0.73334801  0.63430064  0.22543770     0.25100
C1418       C  0.76145707  0.63384488  0.25639298    -0.23000
C1419       C  0.74993948  0.61459923  0.29972134     0.20000
C1420       C  0.71128487  0.59651502  0.31212512     0.25100
C1421       C  0.68336016  0.59741529  0.28164437    -0.22900
C1422       C  0.69429959  0.61563873  0.23770109     0.20000
F1423       F  0.66763829  0.61652001  0.20752775    -0.12900
F1424       F  0.74382085  0.65301101  0.18359599    -0.15300
F1425       F  0.70080967  0.57711882  0.35357175    -0.15300
F1426       F  0.77668403  0.61491731  0.33122051    -0.12900
C1427       C  0.85330758  0.58235051  0.01041418     0.25100
C1428       C  0.87363470  0.62444442  0.49130595    -0.23000
C1429       C  0.91282149  0.64223219  0.47842145     0.20000
C1430       C  0.93237805  0.62175242  0.48948991     0.25100
C1431       C  0.91193606  0.58059529  0.50910783    -0.22900
C1432       C  0.87153709  0.55967141  0.01645918     0.20000
F1433       F  0.85000533  0.01777197  0.03144783    -0.12900
F1434       F  0.81675262  0.56394293  0.02639315    -0.15300
F1435       F  0.97101550  0.64156165  0.48003442    -0.15300
F1436       F  0.93238870  0.67924390  0.45478577    -0.12900
C1437       C  0.91790616  0.80174553  0.05304318     0.25100
C1438       C  0.88969856  0.77752131  0.00939304    -0.23000
C1439       C  0.88550431  0.80308987  0.97785145     0.20000
C1440       C  0.90909096  0.85215392  0.98987190     0.25100
C1441       C  0.93728535  0.87655288  0.03384563    -0.22900
C1442       C  0.94132951  0.85060342  0.06525424     0.20000
F1443       F  0.96724491  0.87233199  0.10869668    -0.12900
F1444       F  0.92185773  0.77793704  0.08485900    -0.15300
F1445       F  0.90480648  0.87569311  0.95800238    -0.15300
F1446       F  0.85889870  0.78047354  0.43499185    -0.12900
C1447       C  0.74245565  0.60416024  0.03931723     0.25100
C1448       C  0.75371065  0.62848890  0.99940490    -0.23000
C1449       C  0.72574753  0.63298392  0.47419616     0.20000
C1450       C  0.68679165  0.61227940  0.98791628     0.25100
C1451       C  0.67597636  0.58846562  0.02822234    -0.22900
C1452       C  0.70421454  0.58481214  0.05386006     0.20000
F1453       F  0.69460447  0.56190317  0.09283690    -0.12900
F1454       F  0.76922913  0.60080970  0.06578339    -0.15300
F1455       F  0.66013166  0.61666536  0.46292736    -0.15300
F1456       F  0.73625951  0.65762081  0.43666595    -0.12900
C1457       C  0.85536458  0.65091485  0.48802109     0.04700
C1458       C  0.81293557  0.62750543  0.48129965    -0.11500
C1459       C  0.79597335  0.65245418  0.48830746     0.02200
C1460       C  0.82120794  0.70134898  0.49447228    -0.10000
C1461       C  0.86334680  0.72557428  0.49819960     0.04600
C1462       C  0.88021060  0.70041290  0.49677804    -0.09400
H1463       H  0.79251765  0.58967980  0.47317111     0.10200
H1464       H  0.80836981  0.72083124  0.50033040     0.07800
H1465       H  0.91280207  0.72001068  0.50445993     0.07600
C1466       C  0.86435454  0.65828004  0.74880098     0.04700
C1467       C  0.82227949  0.63366075  0.74776147    -0.11500
C1468       C  0.80387136  0.65691890  0.74663519     0.02200
C1469       C  0.82778335  0.70478540  0.74494767    -0.10000
C1470       C  0.87006980  0.73013965  0.74745497     0.04600
C1471       C  0.88807504  0.70639772  0.74818474    -0.09400
H1472       H  0.80419609  0.59695896  0.75063716     0.10200
H1473       H  0.81383551  0.72312653  0.74573603     0.07800
H1474       H  0.92081077  0.72596132  0.75253590     0.07600
C1475       C  0.66927432  0.88942672  0.66250175     0.04700
C1476       C  0.64762151  0.84087309  0.65707478    -0.11500
C1477       C  0.66739362  0.81929613  0.65431420     0.02200
C1478       C  0.70990389  0.84729473  0.65702221    -0.10000
C1479       C  0.73322321  0.89693132  0.66550766     0.04600
C1480       C  0.71194638  0.91743571  0.67013611    -0.09200
H1481       H  0.61476261  0.81947470  0.65147825     0.10200
H1482       H  0.72426091  0.82972733  0.65071228     0.07800
H1483       H  0.72785443  0.95494522  0.67740819     0.07600
C1484       C  0.67501314  0.89234094  0.88768426     0.04700
C1485       C  0.71610762  0.91359522  0.88436057    -0.11500
C1486       C  0.73212285  0.88777970  0.88613514     0.02200
C1487       C  0.70679783  0.84098323  0.89184094    -0.10000
C1488       C  0.66550645  0.81938750  0.89374733     0.04600
C1489       C  0.65005974  0.84564946  0.89334458    -0.09400
H1490       H  0.73484737  0.94909085  0.87747371     0.10200
H1491       H  0.71872444  0.82051947  0.89163941     0.07800
H1492       H  0.61796349  0.82893117  0.89431089     0.07600
C1493       C  0.63561618  0.56701782  0.54417982     0.78000
Tb1494     Tb  0.96673776  0.52271403  0.57201164     1.80700
O1495       O  0.63038717  0.56666635  0.58928407    -0.50000
O1496       O  0.58961441  0.00402384  0.63767546    -0.57500
C1497       C  0.56157592  0.61622583  0.60200730     0.93800
O1498       O  0.96673991  0.58549339  0.55332758    -0.57000
Tb1499     Tb  0.55930245  0.52022372  0.57662215     1.78100
O1500       O  0.90415835  0.96225449  0.59380710    -0.57500
O1501       O  0.49591590  0.94923212  0.57647711    -0.76300
O1502       O  0.57498844  0.59513161  0.57958346    -0.75600
O1503       O  0.52749176  0.49932964  0.99478004    -0.60900
C1504       C  0.96303278  0.92860662  0.54691984     0.93400
O1505       O  0.48315320  0.50618093  0.64528714    -0.72900
C1506       C  0.89793539  0.48834650  0.62151404     0.76800
C1507       C  0.58598510  0.96973854  0.61091689     0.77800
O1508       O  0.60290803  0.54548360  0.51469862    -0.58100
O1509       O  0.56709002  0.95900409  0.56789227    -0.50100
O1510       O  0.49857534  0.53690149  0.49974054    -0.76100
O1511       O  0.55019355  0.54591659  0.65469145    -0.60100
C1512       C  0.51691245  0.52612980  0.67236780     0.91600
C1513       C  0.51465756  0.51990567  0.97543470     0.92800
C1514       C  0.93286235  0.56094917  0.02590680     0.77200
O1515       O  0.92635608  0.53124357  0.62580984    -0.49400
O1516       O  0.91694349  0.01759356  0.51879242    -0.50600
O1517       O  0.95185758  0.95151323  0.52934647    -0.63400
O1518       O  0.52577461  0.59430623  0.61342048    -0.64600
C1519       C  0.64266541  0.57731066  0.79562899     0.78000
Tb1520     Tb  0.97345218  0.52426892  0.82260202     1.80700
O1521       O  0.63660402  0.58176167  0.84023966    -0.50000
O1522       O  0.60410062  0.01557486  0.87846440    -0.57500
C1523       C  0.56579225  0.61806991  0.85165216     0.93800
O1524       O  0.95800881  0.57831300  0.84030066    -0.57000
Tb1525     Tb  0.56582899  0.52773560  0.82572639     1.78100
O1526       O  0.90439384  0.96155525  0.80604588    -0.57500
O1527       O  0.50888566  0.95602212  0.78166509    -0.76300
O1528       O  0.57750573  0.59616063  0.86995501    -0.75600
O1529       O  0.55082198  0.54716406  0.75356707    -0.60900
C1530       C  0.97482706  0.93285362  0.79727810     0.93400
O1531       O  0.50544557  0.54513054  0.90408111    -0.72900
C1532       C  0.89579557  0.47113709  0.84765847     0.76800
C1533       C  0.59537144  0.97842697  0.85176130     0.77800
O1534       O  0.61042621  0.55088935  0.76521352    -0.58100
O1535       O  0.57004356  0.96433930  0.81354333    -0.50100
O1536       O  0.98351342  0.50422930  0.74275850    -0.76100
O1537       O  0.53372781  0.50725449  0.89752065    -0.60100
C1538       C  0.51803023  0.52415593  0.92282383     0.91600
C1539       C  0.51709614  0.52587113  0.72575231     0.92800
C1540       C  0.94399005  0.57399490  0.79641004     0.77200
O1541       O  0.92607829  0.50513394  0.87739151    -0.49400
O1542       O  0.94606137  0.04631573  0.76485186    -0.50600
O1543       O  0.96395599  0.95339582  0.82631140    -0.63400
O1544       O  0.53381911  0.59638436  0.82065303    -0.64600
C1545       C  0.64529535  0.74361028  0.91633988     0.25100
C1546       C  0.63770203  0.76804804  0.88707799    -0.23000
C1547       C  0.60541871  0.74300804  0.84768140     0.20000
C1548       C  0.58161752  0.69437255  0.83695309     0.25100
C1549       C  0.58986619  0.66959000  0.86514507    -0.22900
C1550       C  0.62156905  0.69472784  0.90551387     0.20000
F1551       F  0.62978492  0.67219696  0.93449442    -0.12900
F1552       F  0.67589793  0.76714085  0.95516739    -0.15300
F1553       F  0.55140956  0.67189844  0.79766960    -0.15300
F1554       F  0.59812895  0.76565916  0.81766629    -0.12900
C1555       C  0.80591681  0.95278793  0.90347892     0.25100
C1556       C  0.77423225  0.90809750  0.87743827    -0.23000
C1557       C  0.78289388  0.88341833  0.84198041     0.20000
C1558       C  0.82271859  0.90310634  0.83319402     0.25100
C1559       C  0.85428283  0.94785458  0.85931815    -0.22900
C1560       C  0.84550813  0.47254588  0.89419254     0.20000
F1561       F  0.87503798  0.51705397  0.91711711    -0.12900
F1562       F  0.79845994  0.47755146  0.93749588    -0.15300
F1563       F  0.83027926  0.87876185  0.79869465    -0.15300
F1564       F  0.75265743  0.84108532  0.81434843    -0.12900
C1565       C  0.64400570  0.97403235  0.90493318     0.25100
C1566       C  0.61497072  0.95569774  0.86227559    -0.23000
C1567       C  0.60708232  0.91745650  0.82765560     0.20000
C1568       C  0.62780532  0.89805696  0.83545796     0.25100
C1569       C  0.65629646  0.91603428  0.87822217    -0.22900
C1570       C  0.66467746  0.95438617  0.91269381     0.20000
F1571       F  0.69220009  0.97208652  0.95423768    -0.12900
F1572       F  0.65235238  0.01078499  0.93921580    -0.15300
F1573       F  0.62031465  0.86177675  0.80098069    -0.15300
F1574       F  0.57957207  0.89893388  0.78594652    -0.12900
C1575       C  0.60946769  0.74080066  0.66945847     0.25100
C1576       C  0.64246659  0.76714246  0.64342655    -0.23000
C1577       C  0.64886629  0.74329999  0.60397245     0.20000
C1578       C  0.62264768  0.69440316  0.59051898     0.25100
C1579       C  0.58930747  0.66812006  0.61618964    -0.22900
C1580       C  0.58311825  0.69197660  0.65585826     0.20000
F1581       F  0.55166803  0.66810279  0.68190136    -0.12900
F1582       F  0.60251809  0.76240917  0.70814469    -0.15300
F1583       F  0.62906156  0.67305928  0.55091161    -0.15300
F1584       F  0.67924326  0.76736484  0.57656761    -0.12900
C1585       C  0.80148402  0.90898208  0.67588813     0.25100
C1586       C  0.77862814  0.92594136  0.66400169    -0.23000
C1587       C  0.79960066  0.96924337  0.64702748     0.20000
C1588       C  0.84029942  0.49232938  0.63970936     0.25100
C1589       C  0.85980814  0.97058490  0.64311062    -0.22900
C1590       C  0.84066686  0.92962597  0.66304453     0.20000
F1591       F  0.86020689  0.90991962  0.67079756    -0.12900
F1592       F  0.78625609  0.87239240  0.69998544    -0.15300
F1593       F  0.85984406  0.53488165  0.62627327    -0.15300
F1594       F  0.78081682  0.48855325  0.63405977    -0.12900
C1595       C  0.61985530  0.89029502  0.60685211     0.25100
C1596       C  0.64673986  0.90922052  0.65171008    -0.23000
C1597       C  0.65193897  0.94678512  0.68449586     0.20000
C1598       C  0.63104586  0.96545029  0.67221402     0.25100
C1599       C  0.60460681  0.94690888  0.62686273    -0.22900
C1600       C  0.59894244  0.90869485  0.59471485     0.20000
F1601       F  0.57395102  0.88970112  0.55062977    -0.12900
F1602       F  0.61493879  0.85485872  0.57353270    -0.15300
F1603       F  0.63765775  0.50252072  0.70412344    -0.15300
F1604       F  0.67715441  0.46536288  0.72835181    -0.12900
C1605       C  0.90724727  0.63076079  0.72591666     0.25100
C1606       C  0.88432476  0.63592284  0.75970559    -0.23000
C1607       C  0.88227142  0.62203310  0.80591297     0.20000
C1608       C  0.90276915  0.60322232  0.81823928     0.25100
C1609       C  0.92492972  0.59692556  0.78408647    -0.22900
C1610       C  0.92725889  0.61108617  0.73793484     0.20000
F1611       F  0.94998066  0.60731590  0.70532578    -0.12900
F1612       F  0.90996601  0.64445836  0.68128901    -0.15300
F1613       F  0.90024696  0.59029644  0.86327552    -0.15300
F1614       F  0.86096345  0.62755140  0.83956673    -0.12900
C1615       C  0.88911135  0.80606173  0.79658666     0.25100
C1616       C  0.89574284  0.78206568  0.75764564    -0.23000
C1617       C  0.92818465  0.80797149  0.73093395     0.20000
C1618       C  0.95375763  0.85700613  0.74324374     0.25100
C1619       C  0.94741367  0.88102008  0.78274679    -0.22900
C1620       C  0.91435051  0.85481219  0.80874945     0.20000
F1621       F  0.90677812  0.87606989  0.84708586    -0.12900
F1622       F  0.85908469  0.78224784  0.82454095    -0.15300
F1623       F  0.98446968  0.88083254  0.71620804    -0.15300
F1624       F  0.93499365  0.78577623  0.69274378    -0.12900
C1625       C  0.73334838  0.63430137  0.72543941     0.25100
C1626       C  0.76145719  0.63384483  0.75639424    -0.23000
C1627       C  0.74993933  0.61459841  0.79972213     0.20000
C1628       C  0.71128477  0.59651437  0.81212597     0.25100
C1629       C  0.68336034  0.59741545  0.78164569    -0.22900
C1630       C  0.69430000  0.61563959  0.73770284     0.20000
F1631       F  0.66763897  0.61652162  0.70752992    -0.12900
F1632       F  0.74382143  0.65301235  0.68359809    -0.15300
F1633       F  0.70080932  0.57711753  0.85357218    -0.15300
F1634       F  0.77668357  0.61491559  0.83122084    -0.12900
C1635       C  0.85330772  0.58235013  0.51041336     0.25100
C1636       C  0.87363447  0.62444479  0.99130675    -0.23000
C1637       C  0.91282129  0.64223270  0.97842230     0.20000
C1638       C  0.93237795  0.62175303  0.98949076     0.25100
C1639       C  0.91193608  0.58059595  0.00910881    -0.22900
C1640       C  0.87153709  0.55967084  0.51645821     0.20000
F1641       F  0.85000585  0.01777227  0.53144881    -0.12900
F1642       F  0.81675283  0.56394276  0.52639251    -0.15300
F1643       F  0.97101536  0.64156228  0.98003510    -0.15300
F1644       F  0.93238840  0.67924437  0.95478655    -0.12900
C1645       C  0.91790619  0.80174525  0.55304324     0.25100
C1646       C  0.88969920  0.77752119  0.50939256    -0.23000
C1647       C  0.88550548  0.80308986  0.47785062     0.20000
C1648       C  0.90909200  0.85215389  0.48987130     0.25100
C1649       C  0.93728562  0.87655266  0.53384568    -0.22900
C1650       C  0.94132931  0.85060311  0.56525461     0.20000
F1651       F  0.96724407  0.87233158  0.60869756    -0.12900
F1652       F  0.92185733  0.77793662  0.58485929    -0.15300
F1653       F  0.90480821  0.87569324  0.45800138    -0.15300
F1654       F  0.85889684  0.78047341  0.93499329    -0.12900
C1655       C  0.74245644  0.60416122  0.53931713     0.25100
C1656       C  0.75371116  0.62848917  0.49940424    -0.23000
C1657       C  0.72574719  0.63298406  0.97419709     0.20000
C1658       C  0.68679201  0.61227931  0.48791546     0.25100
C1659       C  0.67597688  0.58846592  0.52822186    -0.22900
C1660       C  0.70421533  0.58481310  0.55386000     0.20000
F1661       F  0.69460559  0.56190488  0.59283742    -0.12900
F1662       F  0.76923020  0.60081144  0.56578378    -0.15300
F1663       F  0.66013145  0.61666579  0.96292840    -0.15300
F1664       F  0.73625933  0.65762130  0.93666717    -0.12900
loop_ 
_geom_bond_atom_site_label_1 
_geom_bond_atom_site_label_2 
_geom_bond_distance 
_geom_bond_site_symmetry_2 
_ccdc_geom_bond_type 
C1            C2   1.412       .  A
C1            C6   1.413       .  A
C1          C388   1.509       .  S
C2            C3   1.405       .  A
C2            H7   1.080       .  S
C3            C4   1.399       .  A
C3          C200   1.484       .  S
C4            C5   1.400       .  A
C4            H8   1.084   1_556  S
C5            C6   1.407       .  A
C5          C190   1.482   1_556  S
C6            H9   1.081   1_556  S
C10          C11   1.403       .  A
C10          C15   1.402       .  A
C10         C150   1.476       .  S
C11          C12   1.404       .  A
C11          H16   1.084       .  S
C12          C13   1.401       .  A
C12         C170   1.480       .  S
C13          C14   1.404       .  A
C13          H17   1.084       .  S
C14          C15   1.404       .  A
C14         C160   1.482       .  S
C15          H18   1.084       .  S
C19          C20   1.396       .  A
C19          C24   1.408       .  A
C19         C140   1.487       .  S
C20          C21   1.396       .  A
C20          H25   1.084       .  S
C21          C22   1.408       .  A
C21         C120   1.490       .  S
C22          C23   1.419       .  A
C22          H26   1.079       .  S
C23          C24   1.419       .  A
C23         C130   1.519       .  S
C24          H27   1.078       .  S
C28          C29   1.399       .  A
C28          C33   1.396       .  A
C28         C113   1.465       .  S
C29          C30   1.405       .  A
C29          H34   1.084       .  S
C30          C31   1.400       .  A
C30         C100   1.474       .  S
C31          C32   1.397       .  A
C31          H35   1.084       .  S
C32          C33   1.397       .  A
C32          C90   1.470       .  S
C33          H36   1.085       .  S
C37         C203   1.474       .  S
C37          O52   1.262       .  A
C37          O39   1.259       .  A
Tb38         O42   2.357       .  S
Tb38         O59   2.366       .  S
Tb38        O476   2.357       .  S
Tb38        O477   2.351   1_545  S
Tb38        O460   2.370   1_545  S
Tb38        O886   2.353   1_554  S
Tb38        O881   2.340       .  S
Tb38        O894   2.349       .  S
O39         Tb43   2.345       .  S
O40          C51   1.261       .  A
O40        Tb459   2.360       .  S
C41         C123   1.485       .  S
C41          O46   1.270       .  A
C41          O62   1.273       .  A
O42         C266   1.261       .  A
Tb43         O52   2.369       .  S
Tb43         O46   2.343       .  S
Tb43         O55   2.334       .  S
Tb43        O456   2.360       .  S
Tb43        O255   2.338   1_544  S
Tb43        O469   2.359   1_545  S
Tb43        O461   2.351   1_445  S
O44         C466   1.264       .  A
O44        Tb454   2.370       .  S
O45         C880   1.271       .  A
O45        Tb459   2.351   1_655  S
O47          C57   1.271   1_565  A
O47        Tb251   2.338   1_565  S
C48         C193   1.487       .  S
C48          O61   1.273       .  A
C48         O877   1.271       .  A
O49          C56   1.267   1_655  A
O49        Tb870   2.340       .  S
C50         C549   1.483       .  S
C50          O59   1.260   1_565  A
C50         O460   1.264       .  A
C51         C143   1.486       .  S
C51          O53   1.263       .  A
O53        Tb459   2.359       .  S
O54         C265   1.272   1_655  A
O54        Tb870   2.353   1_556  S
O55          C56   1.268       .  A
C56          C83   1.459       .  S
C57          C82   1.468       .  S
C57         O262   1.272   1_455  A
C58         C183   1.474       .  S
C58         O250   1.261       .  A
C58         O684   1.262       .  A
O60         C682   1.262       .  A
O60        Tb454   2.357       .  S
O61        Tb454   2.351       .  S
O62        Tb870   2.349   1_455  S
C63         C173   1.470       .  S
C63          O78   1.260       .  A
C63          O65   1.260       .  A
Tb64         O80   2.328       .  S
Tb64         O68   2.345       .  S
Tb64         O85   2.324       .  S
Tb64        O502   2.359       .  S
Tb64        O503   2.337   1_545  S
Tb64        O486   2.346   1_545  S
Tb64        O907   2.332       .  S
Tb64        O920   2.325       .  S
O65         Tb69   2.344       .  S
O66          C77   1.259       .  A
O66        Tb485   2.341       .  S
C67          C93   1.475       .  S
C67          O72   1.266       .  A
C67          O88   1.264       .  A
O68          C84   1.260       .  A
Tb69         O73   2.346       .  S
Tb69         O78   2.361       .  S
Tb69         O72   2.334       .  S
Tb69         O81   2.358       .  S
Tb69        O482   2.341       .  S
Tb69        O495   2.340   1_545  S
Tb69        O487   2.343   1_545  S
O70         C492   1.263       .  A
O70        Tb480   2.346       .  S
O71         C906   1.268   1_455  A
O71        Tb485   2.343       .  S
O73          C83   1.269       .  A
C74         C163   1.484       .  S
C74          O87   1.266       .  A
C74         O903   1.268       .  A
O75          C82   1.268       .  A
O75        Tb896   2.332   1_455  S
C76         C519   1.465       .  S
C76          O85   1.260   1_565  A
C76         O486   1.263       .  A
C77         C110   1.472       .  S
C77          O79   1.262       .  A
O79        Tb485   2.340       .  S
O80         C915   1.269       .  A
O81          C82   1.270       .  A
C83         O912   1.269   1_455  A
C84         C153   1.473       .  S
C84         O502   1.263       .  A
O86         C500   1.263       .  A
O86        Tb480   2.359       .  S
O87        Tb480   2.337       .  S
O88        Tb896   2.325   1_455  S
C89          C90   1.403       .  A
C89          C94   1.396       .  A
C89          F96   1.358       .  S
C90          C91   1.404       .  A
C91          C92   1.389       .  A
C91          F98   1.359       .  S
C92          C93   1.410       .  A
C92          F97   1.359       .  S
C93          C94   1.409       .  A
C94          F95   1.357       .  S
C99         C100   1.401       .  A
C99         C520   1.390       .  A
C99         F522   1.357       .  S
C100        C101   1.410       .  A
C101        C102   1.395       .  A
C101        F108   1.358       .  S
C102        C103   1.402       .  A
C102        F107   1.358       .  S
C103        C520   1.404       .  A
C103        C492   1.465       .  S
C104        C515   1.390       .  A
C104        C519   1.404       .  A
C104        F105   1.353   1_565  S
F106        C515   1.357       .  S
C109        C110   1.411       .  A
C109        C114   1.397       .  A
C109        F116   1.356       .  S
C110        C111   1.406       .  A
C111        C112   1.391       .  A
C111        F118   1.358       .  S
C112        C113   1.403       .  A
C112        F117   1.358       .  S
C113        C114   1.400       .  A
C114        F115   1.358       .  S
C119        C120   1.410       .  A
C119        C124   1.398       .  A
C119        F126   1.358       .  S
C120        C121   1.407       .  A
C121        C122   1.400       .  A
C121        F128   1.358       .  S
C122        C123   1.412       .  A
C122        F127   1.358       .  S
C123        C124   1.407       .  A
C124        F125   1.358       .  S
C129        C130   1.420       .  A
C129        C134   1.404       .  A
C129        F136   1.357       .  S
C130        C131   1.421       .  A
C131        C548   1.402       .  A
C131        F554   1.355       .  S
C132        C547   1.402       .  A
C132        C549   1.401       .  A
C132        F137   1.357   1_565  S
C133        C134   1.400       .  A
C133        C548   1.401       .  A
C133        C466   1.483       .  S
C134        F135   1.358       .  S
F138        C547   1.355       .  S
C139        C140   1.409       .  A
C139        C144   1.395       .  A
C139        F146   1.359       .  S
C140        C141   1.404       .  A
C141        C142   1.404       .  A
C141        F564   1.358       .  S
C142        C143   1.413       .  A
C142        F563   1.355       .  S
C143        C144   1.406       .  A
C144        F145   1.358       .  S
F147        C558   1.355   1_545  S
F148        C557   1.358       .  S
C149        C150   1.405       .  A
C149        C154   1.402       .  A
C149        F156   1.358       .  S
C150        C151   1.404       .  A
C151        C152   1.395       .  A
C151        F158   1.358       .  S
C152        C153   1.406       .  A
C152        F157   1.357       .  S
C153        C154   1.406       .  A
C154        F155   1.357       .  S
C159        C160   1.406       .  A
C159        C164   1.393       .  A
C159        F166   1.358       .  S
C160        C161   1.406       .  A
C161        C162   1.401       .  A
C161        F168   1.357       .  S
C162        C163   1.411       .  A
C162        F167   1.358       .  S
C163        C164   1.410       .  A
C164        F165   1.358       .  S
C169        C170   1.409       .  A
C169        C174   1.403       .  A
C169        F176   1.358       .  S
C170        C171   1.406       .  A
C171        C172   1.393       .  A
C171        F178   1.358       .  S
C172        C173   1.404       .  A
C172        F177   1.358       .  S
C173        C174   1.405       .  A
C174        F175   1.358       .  S
C179        C184   1.396       .  A
C179        C388   1.418   1_554  A
C179        F186   1.356       .  S
C180        C181   1.418       .  A
C180        C387   1.418       .  A
C180        C209   1.509       .  S
C181        C182   1.404       .  A
C181        F188   1.357       .  S
C182        C183   1.400       .  A
C182        F187   1.358       .  S
C183        C392   1.399       .  A
C184        C391   1.399       .  A
C184        F601   1.357       .  S
F185        C600   1.357       .  S
C189        C190   1.403       .  A
C189        C194   1.397       .  A
C189        F196   1.358       .  S
C190        C191   1.406   1_554  A
C191        C192   1.402       .  A
C191        F406   1.358       .  S
C192        C193   1.410   1_556  A
C192        F197   1.358       .  S
C193        C194   1.412       .  A
C194        F195   1.358       .  S
F198        C399   1.358       .  S
C199        C200   1.407   1_554  A
C199        C204   1.394       .  A
C199        F206   1.358       .  S
C200        C409   1.408       .  A
C201        C408   1.408       .  A
C201        C410   1.405       .  A
C201        F208   1.357       .  S
C202        C203   1.407   1_556  A
C202        C409   1.405       .  A
C202        F415   1.357       .  S
C203        C204   1.404       .  A
C204        F205   1.359       .  S
F207        C410   1.357       .  S
C209        C210   1.412       .  A
C209        C214   1.413       .  A
C210        C211   1.405       .  A
C210        H215   1.080       .  S
C211        C212   1.399       .  A
C211        C408   1.484       .  S
C212        C213   1.400       .  A
C212        H216   1.084       .  S
C213        C214   1.407       .  A
C213        C398   1.482       .  S
C214        H217   1.081       .  S
C218        C219   1.403       .  A
C218        C223   1.402       .  A
C218        C358   1.476       .  S
C219        C220   1.404       .  A
C219        H224   1.084       .  S
C220        C221   1.401       .  A
C220        C378   1.480       .  S
C221        C222   1.404       .  A
C221        H225   1.084       .  S
C222        C223   1.404       .  A
C222        C368   1.482       .  S
C223        H226   1.084       .  S
C227        C228   1.396       .  A
C227        C232   1.408       .  A
C227        C348   1.487       .  S
C228        C229   1.396       .  A
C228        H233   1.084       .  S
C229        C230   1.408       .  A
C229        C328   1.490       .  S
C230        C231   1.419       .  A
C230        H234   1.079       .  S
C231        C232   1.419       .  A
C231        C338   1.519       .  S
C232        H235   1.078       .  S
C236        C237   1.399       .  A
C236        C241   1.396       .  A
C236        C321   1.465       .  S
C237        C238   1.405       .  A
C237        H242   1.084       .  S
C238        C239   1.400       .  A
C238        C308   1.474       .  S
C239        C240   1.397       .  A
C239        H243   1.084       .  S
C240        C241   1.397       .  A
C240        C298   1.470       .  S
C241        H244   1.085       .  S
C245        C411   1.474       .  S
C245        O260   1.262       .  A
C245        O247   1.259       .  A
Tb246       O684   2.357       .  S
Tb246       O685   2.351   1_545  S
Tb246       O668   2.370   1_545  S
Tb246      O1094   2.353       .  S
Tb246      O1089   2.340       .  S
Tb246       O250   2.357       .  S
Tb246      O1102   2.349       .  S
Tb246       O267   2.366       .  S
O247       Tb251   2.345       .  S
O248        C259   1.261       .  A
O248       Tb667   2.360       .  S
C249        C331   1.485       .  S
C249        O254   1.270       .  A
C249        O270   1.273       .  A
Tb251       O664   2.360       .  S
Tb251       O260   2.369       .  S
Tb251       O254   2.343       .  S
Tb251       O677   2.359   1_545  S
Tb251       O263   2.334       .  S
Tb251       O669   2.351   1_445  S
O252        C674   1.264       .  A
O252       Tb662   2.370       .  S
O253       C1088   1.271       .  A
O253       Tb667   2.351   1_655  S
O255        C265   1.271   1_565  A
C256        C401   1.487       .  S
C256       O1085   1.271       .  A
C256        O269   1.273       .  A
O257        C264   1.267   1_655  A
O257      Tb1078   2.340       .  S
C258        C757   1.483       .  S
C258        O668   1.264       .  A
C258        O267   1.260   1_565  A
C259        C351   1.486       .  S
C259        O261   1.263       .  A
O261       Tb667   2.359       .  S
O262      Tb1078   2.353       .  S
O263        C264   1.268       .  A
C264        C291   1.459       .  S
C265        C290   1.468       .  S
C266        C391   1.474       .  S
C266        O476   1.262       .  A
O268        C474   1.262       .  A
O268       Tb662   2.357       .  S
O269       Tb662   2.351       .  S
O270      Tb1078   2.349   1_455  S
C271        C381   1.470       .  S
C271        O286   1.260       .  A
C271        O273   1.260       .  A
Tb272       O710   2.359       .  S
Tb272       O711   2.337   1_545  S
Tb272       O694   2.346   1_545  S
Tb272       O288   2.328       .  S
Tb272      O1115   2.332       .  S
Tb272       O276   2.345       .  S
Tb272      O1128   2.325       .  S
Tb272       O293   2.324       .  S
O273       Tb277   2.344       .  S
O274        C285   1.259       .  A
O274       Tb693   2.341       .  S
C275        C301   1.475       .  S
C275        O280   1.266       .  A
C275        O296   1.264       .  A
O276        C292   1.260       .  A
Tb277       O690   2.341       .  S
Tb277       O281   2.346       .  S
Tb277       O286   2.361       .  S
Tb277       O280   2.334       .  S
Tb277       O703   2.340   1_545  S
Tb277       O289   2.358       .  S
Tb277       O695   2.343   1_545  S
O278        C700   1.263       .  A
O278       Tb688   2.346       .  S
O279       C1114   1.268   1_455  A
O279       Tb693   2.343       .  S
O281        C291   1.269       .  A
C282        C371   1.484       .  S
C282       O1111   1.268       .  A
C282        O295   1.266       .  A
O283        C290   1.268       .  A
O283      Tb1104   2.332   1_455  S
C284        C727   1.465       .  S
C284        O694   1.263       .  A
C284        O293   1.260   1_565  A
C285        C318   1.472       .  S
C285        O287   1.262       .  A
O287       Tb693   2.340       .  S
O288       C1123   1.269       .  A
O289        C290   1.270       .  A
C291       O1120   1.269   1_455  A
C292        C361   1.473       .  S
C292        O710   1.263       .  A
O294        C708   1.263       .  A
O294       Tb688   2.359       .  S
O295       Tb688   2.337       .  S
O296      Tb1104   2.325   1_455  S
C297        C298   1.403       .  A
C297        C302   1.396       .  A
C297        F304   1.358       .  S
C298        C299   1.404       .  A
C299        C300   1.389       .  A
C299        F306   1.359       .  S
C300        C301   1.410       .  A
C300        F305   1.359       .  S
C301        C302   1.409       .  A
C302        F303   1.357       .  S
C307        C308   1.401       .  A
C307        C728   1.390       .  A
C307        F730   1.357       .  S
C308        C309   1.410       .  A
C309        C310   1.395       .  A
C309        F316   1.358       .  S
C310        C311   1.402       .  A
C310        F315   1.358       .  S
C311        C728   1.404       .  A
C311        C700   1.465       .  S
C312        C723   1.390       .  A
C312        C727   1.404       .  A
C312        F313   1.353   1_565  S
F314        C723   1.357       .  S
C317        C318   1.411       .  A
C317        C322   1.397       .  A
C317        F324   1.356       .  S
C318        C319   1.406       .  A
C319        C320   1.391       .  A
C319        F326   1.358       .  S
C320        C321   1.403       .  A
C320        F325   1.358       .  S
C321        C322   1.400       .  A
C322        F323   1.358       .  S
C327        C328   1.410       .  A
C327        C332   1.398       .  A
C327        F334   1.358       .  S
C328        C329   1.407       .  A
C329        C330   1.400       .  A
C329        F336   1.358       .  S
C330        C331   1.412       .  A
C330        F335   1.358       .  S
C331        C332   1.407       .  A
C332        F333   1.358       .  S
C337        C338   1.420       .  A
C337        C342   1.404       .  A
C337        F344   1.357       .  S
C338        C339   1.421       .  A
C339        C756   1.402       .  A
C339        F762   1.355       .  S
C340        C755   1.402       .  A
C340        C757   1.401       .  A
C340        F345   1.357   1_565  S
C341        C756   1.401       .  A
C341        C342   1.400       .  A
C341        C674   1.483       .  S
C342        F343   1.358       .  S
F346        C755   1.355       .  S
C347        C348   1.409       .  A
C347        C352   1.395       .  A
C347        F354   1.359       .  S
C348        C349   1.404       .  A
C349        C350   1.404       .  A
C349        F772   1.358       .  S
C350        C351   1.413       .  A
C350        F771   1.355       .  S
C351        C352   1.406       .  A
C352        F353   1.358       .  S
F355        C766   1.355   1_545  S
F356        C765   1.358       .  S
C357        C358   1.405       .  A
C357        C362   1.402       .  A
C357        F364   1.358       .  S
C358        C359   1.404       .  A
C359        C360   1.395       .  A
C359        F366   1.358       .  S
C360        C361   1.406       .  A
C360        F365   1.357       .  S
C361        C362   1.406       .  A
C362        F363   1.357       .  S
C367        C368   1.406       .  A
C367        C372   1.393       .  A
C367        F374   1.358       .  S
C368        C369   1.406       .  A
C369        C370   1.401       .  A
C369        F376   1.357       .  S
C370        C371   1.411       .  A
C370        F375   1.358       .  S
C371        C372   1.410       .  A
C372        F373   1.358       .  S
C377        C378   1.409       .  A
C377        C382   1.403       .  A
C377        F384   1.358       .  S
C378        C379   1.406       .  A
C379        C380   1.393       .  A
C379        F386   1.358       .  S
C380        C381   1.404       .  A
C380        F385   1.358       .  S
C381        C382   1.405       .  A
C382        F383   1.358       .  S
C387        C392   1.396       .  A
C387        F394   1.356       .  S
C388        C389   1.418       .  A
C389        C390   1.404       .  A
C389        F396   1.357       .  S
C390        C391   1.400   1_556  A
C390        F395   1.358       .  S
C392        F809   1.357       .  S
F393        C808   1.357       .  S
C397        C398   1.403       .  A
C397        C402   1.397       .  A
C397        F404   1.358       .  S
C398        C399   1.406       .  A
C399        C400   1.402       .  A
C400        C401   1.410       .  A
C400        F405   1.358       .  S
C401        C402   1.412       .  A
C402        F403   1.358       .  S
C407        C408   1.407       .  A
C407        C412   1.394       .  A
C407        F414   1.358       .  S
C409        F416   1.357       .  S
C410        C411   1.407       .  A
C411        C412   1.404       .  A
C412        F413   1.359       .  S
C417        C418   1.412       .  A
C417        C422   1.413       .  A
C417        C804   1.509       .  S
C418        C419   1.405       .  A
C418        H423   1.080       .  S
C419        C420   1.399       .  A
C419        C616   1.484       .  S
C420        C421   1.400       .  A
C420        H424   1.084   1_556  S
C421        C422   1.407       .  A
C421        C606   1.482   1_556  S
C422        H425   1.081   1_556  S
C426        C427   1.403       .  A
C426        C431   1.402       .  A
C426        C566   1.476       .  S
C427        C428   1.404       .  A
C427        H432   1.084       .  S
C428        C429   1.401       .  A
C428        C586   1.480       .  S
C429        C430   1.404       .  A
C429        H433   1.084       .  S
C430        C431   1.404       .  A
C430        C576   1.482       .  S
C431        H434   1.084       .  S
C435        C436   1.396       .  A
C435        C440   1.408       .  A
C435        C556   1.487       .  S
C436        C437   1.396       .  A
C436        H441   1.084       .  S
C437        C438   1.408       .  A
C437        C536   1.490       .  S
C438        C439   1.419       .  A
C438        H442   1.079       .  S
C439        C440   1.419       .  A
C439        C546   1.519       .  S
C440        H443   1.078       .  S
C444        C445   1.399       .  A
C444        C449   1.396       .  A
C444        C529   1.465       .  S
C445        C446   1.405       .  A
C445        H450   1.084       .  S
C446        C447   1.400       .  A
C446        C516   1.474       .  S
C447        C448   1.397       .  A
C447        H451   1.084       .  S
C448        C449   1.397       .  A
C448        C506   1.470       .  S
C449        H452   1.085       .  S
C453        C619   1.474       .  S
C453        O468   1.262       .  A
C453        O455   1.259       .  A
Tb454      O1302   2.353   1_554  S
Tb454      O1297   2.340       .  S
Tb454       O458   2.357       .  S
Tb454      O1310   2.349       .  S
Tb454       O475   2.366       .  S
O455       Tb459   2.345       .  S
O456        C467   1.261   1_545  A
C457        C539   1.485       .  S
C457        O462   1.270       .  A
C457        O478   1.273       .  A
O458        C682   1.261       .  A
Tb459       O671   2.338   1_554  S
Tb459       O468   2.369       .  S
Tb459       O462   2.343       .  S
Tb459       O471   2.334       .  S
O461       C1296   1.271       .  A
O463        C473   1.271       .  A
O463       Tb667   2.338       .  S
C464        C609   1.487       .  S
C464       O1293   1.271       .  A
C464        O477   1.273       .  A
O465        C472   1.267   1_655  A
O465      Tb1286   2.340       .  S
C466        O475   1.260       .  A
C467        C559   1.486       .  S
C467        O469   1.263       .  A
O470        C681   1.272   1_655  A
O470      Tb1286   2.353   1_556  S
O471        C472   1.268       .  A
C472        C499   1.459       .  S
C473        C498   1.468       .  S
C473        O678   1.272   1_455  A
C474        C599   1.474       .  S
C474        O666   1.261       .  A
O478      Tb1286   2.349   1_455  S
C479        C589   1.470       .  S
C479        O494   1.260       .  A
C479        O481   1.260       .  A
Tb480       O496   2.328       .  S
Tb480      O1323   2.332       .  S
Tb480       O484   2.345       .  S
Tb480      O1336   2.325       .  S
Tb480       O501   2.324       .  S
O481       Tb485   2.344       .  S
O482        C493   1.259   1_545  A
C483        C509   1.475       .  S
C483        O488   1.266       .  A
C483        O504   1.264       .  A
O484        C500   1.260       .  A
Tb485       O489   2.346       .  S
Tb485       O494   2.361       .  S
Tb485       O488   2.334       .  S
Tb485       O497   2.358       .  S
O487       C1322   1.268   1_455  A
O489        C499   1.269       .  A
C490        C579   1.484       .  S
C490       O1319   1.268       .  A
C490        O503   1.266       .  A
O491        C498   1.268       .  A
O491      Tb1312   2.332   1_455  S
C492        O501   1.260       .  A
C493        C526   1.472       .  S
C493        O495   1.262       .  A
O496       C1331   1.269       .  A
O497        C498   1.270       .  A
C499       O1328   1.269   1_455  A
C500        C569   1.473       .  S
O504      Tb1312   2.325   1_455  S
C505        C506   1.403       .  A
C505        C510   1.396       .  A
C505        F512   1.358       .  S
C506        C507   1.404       .  A
C507        C508   1.389       .  A
C507        F514   1.359       .  S
C508        C509   1.410       .  A
C508        F513   1.359       .  S
C509        C510   1.409       .  A
C510        F511   1.357       .  S
C515        C516   1.401       .  A
C516        C517   1.410       .  A
C517        C518   1.395       .  A
C517        F524   1.358       .  S
C518        C519   1.402       .  A
C518        F523   1.358       .  S
C520        F521   1.353       .  S
C525        C526   1.411       .  A
C525        C530   1.397       .  A
C525        F532   1.356   1_565  S
C526        C527   1.406       .  A
C527        C528   1.391       .  A
C527        F534   1.358       .  S
C528        C529   1.403       .  A
C528        F533   1.358       .  S
C529        C530   1.400       .  A
C530        F531   1.358       .  S
C535        C536   1.410       .  A
C535        C540   1.398       .  A
C535        F542   1.358       .  S
C536        C537   1.407       .  A
C537        C538   1.400       .  A
C537        F544   1.358       .  S
C538        C539   1.412       .  A
C538        F543   1.358       .  S
C539        C540   1.407       .  A
C540        F541   1.358       .  S
C545        C546   1.420       .  A
C545        C550   1.404       .  A
C545        F552   1.357       .  S
C546        C547   1.421       .  A
C548        F553   1.357       .  S
C549        C550   1.400       .  A
C550        F551   1.358       .  S
C555        C556   1.409       .  A
C555        C560   1.395       .  A
C555        F562   1.359       .  S
C556        C557   1.404       .  A
C557        C558   1.404       .  A
C558        C559   1.413       .  A
C559        C560   1.406       .  A
C560        F561   1.358       .  S
C565        C566   1.405       .  A
C565        C570   1.402       .  A
C565        F572   1.358       .  S
C566        C567   1.404       .  A
C567        C568   1.395       .  A
C567        F574   1.358       .  S
C568        C569   1.406       .  A
C568        F573   1.357       .  S
C569        C570   1.406       .  A
C570        F571   1.357       .  S
C575        C576   1.406       .  A
C575        C580   1.393       .  A
C575        F582   1.358       .  S
C576        C577   1.406       .  A
C577        C578   1.401       .  A
C577        F584   1.357       .  S
C578        C579   1.411       .  A
C578        F583   1.358       .  S
C579        C580   1.410       .  A
C580        F581   1.358       .  S
C585        C586   1.409       .  A
C585        C590   1.403       .  A
C585        F592   1.358       .  S
C586        C587   1.406       .  A
C587        C588   1.393       .  A
C587        F594   1.358       .  S
C588        C589   1.404       .  A
C588        F593   1.358       .  S
C589        C590   1.405       .  A
C590        F591   1.358       .  S
C595        C804   1.418   1_554  A
C595        C600   1.396       .  A
C595        F602   1.356       .  S
C596        C803   1.418       .  A
C596        C597   1.418       .  A
C596        C625   1.509       .  S
C597        C598   1.404       .  A
C597        F604   1.357       .  S
C598        C599   1.400       .  A
C598        F603   1.358       .  S
C599        C808   1.399       .  A
C600        C807   1.399       .  A
C605        C606   1.403       .  A
C605        C610   1.397       .  A
C605        F612   1.358       .  S
C606        C607   1.406   1_554  A
C607        C608   1.402       .  A
C607        F822   1.358       .  S
C608        C609   1.410   1_556  A
C608        F613   1.358       .  S
C609        C610   1.412       .  A
C610        F611   1.358       .  S
F614        C815   1.358       .  S
C615        C616   1.407   1_554  A
C615        C620   1.394       .  A
C615        F622   1.358       .  S
C616        C825   1.408       .  A
C617        C824   1.408       .  A
C617        C826   1.405       .  A
C617        F624   1.357       .  S
C618        C825   1.405       .  A
C618        C619   1.407   1_556  A
C618        F831   1.357       .  S
C619        C620   1.404       .  A
C620        F621   1.359       .  S
F623        C826   1.357       .  S
C625        C626   1.412       .  A
C625        C630   1.413       .  A
C626        C627   1.405       .  A
C626        H631   1.080       .  S
C627        C628   1.399       .  A
C627        C824   1.484       .  S
C628        C629   1.400       .  A
C628        H632   1.084       .  S
C629        C630   1.407       .  A
C629        C814   1.482       .  S
C630        H633   1.081       .  S
C634        C635   1.403       .  A
C634        C639   1.402       .  A
C634        C774   1.476       .  S
C635        C636   1.404       .  A
C635        H640   1.084       .  S
C636        C637   1.401       .  A
C636        C794   1.480       .  S
C637        C638   1.404       .  A
C637        H641   1.084       .  S
C638        C639   1.404       .  A
C638        C784   1.482       .  S
C639        H642   1.084       .  S
C643        C644   1.396       .  A
C643        C648   1.408       .  A
C643        C764   1.487       .  S
C644        C645   1.396       .  A
C644        H649   1.084       .  S
C645        C646   1.408       .  A
C645        C744   1.490       .  S
C646        C647   1.419       .  A
C646        H650   1.079       .  S
C647        C648   1.419       .  A
C647        C754   1.519       .  S
C648        H651   1.078       .  S
C652        C653   1.399       .  A
C652        C657   1.396       .  A
C652        C737   1.465       .  S
C653        C654   1.405       .  A
C653        H658   1.084       .  S
C654        C655   1.400       .  A
C654        C724   1.474       .  S
C655        C656   1.397       .  A
C655        H659   1.084       .  S
C656        C657   1.397       .  A
C656        C714   1.470       .  S
C657        H660   1.085       .  S
C661        C827   1.474       .  S
C661        O676   1.262       .  A
C661        O663   1.259       .  A
Tb662      O1510   2.353       .  S
Tb662      O1505   2.340       .  S
Tb662       O666   2.357       .  S
Tb662      O1518   2.349       .  S
Tb662       O683   2.366       .  S
O663       Tb667   2.345       .  S
O664        C675   1.261   1_545  A
C665        C747   1.485       .  S
C665        O670   1.270       .  A
C665        O686   1.273       .  A
Tb667       O676   2.369       .  S
Tb667       O670   2.343       .  S
Tb667       O679   2.334       .  S
O669       C1504   1.271       .  A
O671        C681   1.271       .  A
C672        C817   1.487       .  S
C672       O1501   1.271       .  A
C672        O685   1.273       .  A
O673        C680   1.267   1_655  A
O673      Tb1494   2.340       .  S
C674        O683   1.260       .  A
C675        C767   1.486       .  S
C675        O677   1.263       .  A
O678      Tb1494   2.353       .  S
O679        C680   1.268       .  A
C680        C707   1.459       .  S
C681        C706   1.468       .  S
C682        C807   1.474       .  S
O686      Tb1494   2.349   1_455  S
C687        C797   1.470       .  S
C687        O702   1.260       .  A
C687        O689   1.260       .  A
Tb688       O704   2.328       .  S
Tb688      O1531   2.332       .  S
Tb688       O692   2.345       .  S
Tb688      O1544   2.325       .  S
Tb688       O709   2.324       .  S
O689       Tb693   2.344       .  S
O690        C701   1.259   1_545  A
C691        C717   1.475       .  S
C691        O696   1.266       .  A
C691        O712   1.264       .  A
O692        C708   1.260       .  A
Tb693       O697   2.346       .  S
Tb693       O702   2.361       .  S
Tb693       O696   2.334       .  S
Tb693       O705   2.358       .  S
O695       C1530   1.268   1_455  A
O697        C707   1.269       .  A
C698        C787   1.484       .  S
C698       O1527   1.268       .  A
C698        O711   1.266       .  A
O699        C706   1.268       .  A
O699      Tb1520   2.332   1_455  S
C700        O709   1.260       .  A
C701        C734   1.472       .  S
C701        O703   1.262       .  A
O704       C1539   1.269       .  A
O705        C706   1.270       .  A
C707       O1536   1.269   1_455  A
C708        C777   1.473       .  S
O712      Tb1520   2.325   1_455  S
C713        C714   1.403       .  A
C713        C718   1.396       .  A
C713        F720   1.358       .  S
C714        C715   1.404       .  A
C715        C716   1.389       .  A
C715        F722   1.359       .  S
C716        C717   1.410       .  A
C716        F721   1.359       .  S
C717        C718   1.409       .  A
C718        F719   1.357       .  S
C723        C724   1.401       .  A
C724        C725   1.410       .  A
C725        C726   1.395       .  A
C725        F732   1.358       .  S
C726        C727   1.402       .  A
C726        F731   1.358       .  S
C728        F729   1.353       .  S
C733        C734   1.411       .  A
C733        C738   1.397       .  A
C733        F740   1.356   1_565  S
C734        C735   1.406       .  A
C735        C736   1.391       .  A
C735        F742   1.358       .  S
C736        C737   1.403       .  A
C736        F741   1.358       .  S
C737        C738   1.400       .  A
C738        F739   1.358       .  S
C743        C744   1.410       .  A
C743        C748   1.398       .  A
C743        F750   1.358       .  S
C744        C745   1.407       .  A
C745        C746   1.400       .  A
C745        F752   1.358       .  S
C746        C747   1.412       .  A
C746        F751   1.358       .  S
C747        C748   1.407       .  A
C748        F749   1.358       .  S
C753        C754   1.420       .  A
C753        C758   1.404       .  A
C753        F760   1.357       .  S
C754        C755   1.421       .  A
C756        F761   1.357       .  S
C757        C758   1.400       .  A
C758        F759   1.358       .  S
C763        C764   1.409       .  A
C763        C768   1.395       .  A
C763        F770   1.359       .  S
C764        C765   1.404       .  A
C765        C766   1.404       .  A
C766        C767   1.413       .  A
C767        C768   1.406       .  A
C768        F769   1.358       .  S
C773        C774   1.405       .  A
C773        C778   1.402       .  A
C773        F780   1.358       .  S
C774        C775   1.404       .  A
C775        C776   1.395       .  A
C775        F782   1.358       .  S
C776        C777   1.406       .  A
C776        F781   1.357       .  S
C777        C778   1.406       .  A
C778        F779   1.357       .  S
C783        C784   1.406       .  A
C783        C788   1.393       .  A
C783        F790   1.358       .  S
C784        C785   1.406       .  A
C785        C786   1.401       .  A
C785        F792   1.357       .  S
C786        C787   1.411       .  A
C786        F791   1.358       .  S
C787        C788   1.410       .  A
C788        F789   1.358       .  S
C793        C794   1.409       .  A
C793        C798   1.403       .  A
C793        F800   1.358       .  S
C794        C795   1.406       .  A
C795        C796   1.393       .  A
C795        F802   1.358       .  S
C796        C797   1.404       .  A
C796        F801   1.358       .  S
C797        C798   1.405       .  A
C798        F799   1.358       .  S
C803        C808   1.396       .  A
C803        F810   1.356       .  S
C804        C805   1.418       .  A
C805        C806   1.404       .  A
C805        F812   1.357       .  S
C806        C807   1.400   1_556  A
C806        F811   1.358       .  S
C813        C814   1.403       .  A
C813        C818   1.397       .  A
C813        F820   1.358       .  S
C814        C815   1.406       .  A
C815        C816   1.402       .  A
C816        C817   1.410       .  A
C816        F821   1.358       .  S
C817        C818   1.412       .  A
C818        F819   1.358       .  S
C823        C824   1.407       .  A
C823        C828   1.394       .  A
C823        F830   1.358       .  S
C825        F832   1.357       .  S
C826        C827   1.407       .  A
C827        C828   1.404       .  A
C828        F829   1.359       .  S
C833        C834   1.412       .  A
C833        C838   1.413       .  A
C833       C1220   1.509       .  S
C834        C835   1.405       .  A
C834        H839   1.080       .  S
C835        C836   1.399       .  A
C835       C1032   1.484       .  S
C836        C837   1.400       .  A
C836        H840   1.084   1_556  S
C837        C838   1.407       .  A
C837       C1022   1.482   1_556  S
C838        H841   1.081   1_556  S
C842        C843   1.403       .  A
C842        C847   1.402       .  A
C842        C982   1.476       .  S
C843        C844   1.404       .  A
C843        H848   1.084       .  S
C844        C845   1.401       .  A
C844       C1002   1.480       .  S
C845        C846   1.404       .  A
C845        H849   1.084       .  S
C846        C847   1.404       .  A
C846        C992   1.482       .  S
C847        H850   1.084       .  S
C851        C852   1.396       .  A
C851        C856   1.408       .  A
C851        C972   1.487       .  S
C852        C853   1.396       .  A
C852        H857   1.084       .  S
C853        C854   1.408       .  A
C853        C952   1.490       .  S
C854        C855   1.419       .  A
C854        H858   1.079       .  S
C855        C856   1.419       .  A
C855        C962   1.519       .  S
C856        H859   1.078       .  S
C860        C861   1.399       .  A
C860        C865   1.396       .  A
C860        C945   1.465       .  S
C861        C862   1.405       .  A
C861        H866   1.084       .  S
C862        C863   1.400       .  A
C862        C932   1.474       .  S
C863        C864   1.397       .  A
C863        H867   1.084       .  S
C864        C865   1.397       .  A
C864        C922   1.470       .  S
C865        H868   1.085       .  S
C869       C1035   1.474       .  S
C869        O884   1.262       .  A
C869        O871   1.259       .  A
Tb870      O1308   2.357       .  S
Tb870      O1309   2.351   1_545  S
Tb870      O1292   2.370   1_545  S
Tb870       O874   2.357       .  S
Tb870       O891   2.366       .  S
O871       Tb875   2.345       .  S
O872        C883   1.261       .  A
O872      Tb1291   2.360       .  S
C873        C955   1.485       .  S
C873        O878   1.270       .  A
C873        O894   1.273       .  A
O874       C1098   1.261       .  A
Tb875      O1288   2.360       .  S
Tb875      O1087   2.338   1_544  S
Tb875       O884   2.369       .  S
Tb875       O878   2.343       .  S
Tb875      O1301   2.359   1_545  S
Tb875       O887   2.334       .  S
Tb875      O1293   2.351   1_545  S
O876       C1298   1.264       .  A
O876      Tb1286   2.370       .  S
O877      Tb1291   2.351       .  S
O879        C889   1.271   1_565  A
O879      Tb1083   2.338   1_565  S
C880       C1025   1.487       .  S
C880        O893   1.273       .  A
O881        C888   1.267       .  A
C882       C1381   1.483       .  S
C882       O1292   1.264       .  A
C882        O891   1.260   1_565  A
C883        C975   1.486       .  S
C883        O885   1.263       .  A
O885      Tb1291   2.359       .  S
O886       C1097   1.272       .  A
O887        C888   1.268       .  A
C888        C915   1.459       .  S
C889        C914   1.468       .  S
C889       O1094   1.272       .  A
C890       C1015   1.474       .  S
C890       O1082   1.261       .  A
C890       O1516   1.262       .  A
O892       C1514   1.262       .  A
O892      Tb1286   2.357       .  S
O893      Tb1286   2.351       .  S
C895       C1005   1.470       .  S
C895        O910   1.260       .  A
C895        O897   1.260       .  A
Tb896      O1334   2.359       .  S
Tb896      O1335   2.337   1_545  S
Tb896      O1318   2.346   1_545  S
Tb896       O912   2.328       .  S
Tb896       O900   2.345       .  S
Tb896       O917   2.324       .  S
O897       Tb901   2.344       .  S
O898        C909   1.259       .  A
O898      Tb1317   2.341       .  S
C899        C925   1.475       .  S
C899        O904   1.266       .  A
C899        O920   1.264       .  A
O900        C916   1.260       .  A
Tb901      O1314   2.341       .  S
Tb901       O905   2.346       .  S
Tb901       O910   2.361       .  S
Tb901       O904   2.334       .  S
Tb901      O1327   2.340   1_545  S
Tb901       O913   2.358       .  S
Tb901      O1319   2.343   1_545  S
O902       C1324   1.263       .  A
O902      Tb1312   2.346       .  S
O903      Tb1317   2.343       .  S
O905        C915   1.269       .  A
C906        C995   1.484       .  S
C906        O919   1.266       .  A
O907        C914   1.268       .  A
C908       C1351   1.465       .  S
C908       O1318   1.263       .  A
C908        O917   1.260   1_565  A
C909        C942   1.472       .  S
C909        O911   1.262       .  A
O911      Tb1317   2.340       .  S
O913        C914   1.270       .  A
C916        C985   1.473       .  S
C916       O1334   1.263       .  A
O918       C1332   1.263       .  A
O918      Tb1312   2.359       .  S
O919      Tb1312   2.337       .  S
C921        C922   1.403       .  A
C921        C926   1.396       .  A
C921        F928   1.358       .  S
C922        C923   1.404       .  A
C923        C924   1.389       .  A
C923        F930   1.359       .  S
C924        C925   1.410       .  A
C924        F929   1.359       .  S
C925        C926   1.409       .  A
C926        F927   1.357       .  S
C931        C932   1.401       .  A
C931       C1352   1.390       .  A
C931       F1354   1.357       .  S
C932        C933   1.410       .  A
C933        C934   1.395       .  A
C933        F940   1.358       .  S
C934        C935   1.402       .  A
C934        F939   1.358       .  S
C935       C1352   1.404       .  A
C935       C1324   1.465       .  S
C936       C1347   1.390       .  A
C936       C1351   1.404       .  A
C936        F937   1.353   1_565  S
F938       C1347   1.357       .  S
C941        C942   1.411       .  A
C941        C946   1.397       .  A
C941        F948   1.356       .  S
C942        C943   1.406       .  A
C943        C944   1.391       .  A
C943        F950   1.358       .  S
C944        C945   1.403       .  A
C944        F949   1.358       .  S
C945        C946   1.400       .  A
C946        F947   1.358       .  S
C951        C952   1.410       .  A
C951        C956   1.398       .  A
C951        F958   1.358       .  S
C952        C953   1.407       .  A
C953        C954   1.400       .  A
C953        F960   1.358       .  S
C954        C955   1.412       .  A
C954        F959   1.358       .  S
C955        C956   1.407       .  A
C956        F957   1.358       .  S
C961        C962   1.420       .  A
C961        C966   1.404       .  A
C961        F968   1.357       .  S
C962        C963   1.421       .  A
C963       C1380   1.402       .  A
C963       F1386   1.355       .  S
C964       C1379   1.402       .  A
C964       C1381   1.401       .  A
C964        F969   1.357   1_565  S
C965       C1380   1.401       .  A
C965        C966   1.400       .  A
C965       C1298   1.483       .  S
C966        F967   1.358       .  S
F970       C1379   1.355       .  S
C971        C972   1.409       .  A
C971        C976   1.395       .  A
C971        F978   1.359       .  S
C972        C973   1.404       .  A
C973        C974   1.404       .  A
C973       F1396   1.358       .  S
C974        C975   1.413       .  A
C974       F1395   1.355       .  S
C975        C976   1.406       .  A
C976        F977   1.358       .  S
F979       C1390   1.355   1_545  S
F980       C1389   1.358       .  S
C981        C982   1.405       .  A
C981        C986   1.402       .  A
C981        F988   1.358       .  S
C982        C983   1.404       .  A
C983        C984   1.395       .  A
C983        F990   1.358       .  S
C984        C985   1.406       .  A
C984        F989   1.357       .  S
C985        C986   1.406       .  A
C986        F987   1.357       .  S
C991        C992   1.406       .  A
C991        C996   1.393       .  A
C991        F998   1.358       .  S
C992        C993   1.406       .  A
C993        C994   1.401       .  A
C993       F1000   1.357       .  S
C994        C995   1.411       .  A
C994        F999   1.358       .  S
C995        C996   1.410       .  A
C996        F997   1.358       .  S
C1001      C1002   1.409       .  A
C1001      C1006   1.403       .  A
C1001      F1008   1.358       .  S
C1002      C1003   1.406       .  A
C1003      C1004   1.393       .  A
C1003      F1010   1.358       .  S
C1004      C1005   1.404       .  A
C1004      F1009   1.358       .  S
C1005      C1006   1.405       .  A
C1006      F1007   1.358       .  S
C1011      C1220   1.418   1_554  A
C1011      C1016   1.396       .  A
C1011      F1018   1.356       .  S
C1012      C1219   1.418       .  A
C1012      C1013   1.418       .  A
C1012      C1041   1.509       .  S
C1013      C1014   1.404       .  A
C1013      F1020   1.357       .  S
C1014      C1015   1.400       .  A
C1014      F1019   1.358       .  S
C1015      C1224   1.399       .  A
C1016      C1223   1.399       .  A
C1016      F1433   1.357       .  S
F1017      C1432   1.357       .  S
C1021      C1022   1.403       .  A
C1021      C1026   1.397       .  A
C1021      F1028   1.358       .  S
C1022      C1023   1.406   1_554  A
C1023      C1024   1.402       .  A
C1023      F1238   1.358       .  S
C1024      C1025   1.410   1_556  A
C1024      F1029   1.358       .  S
C1025      C1026   1.412       .  A
C1026      F1027   1.358       .  S
F1030      C1231   1.358       .  S
C1031      C1032   1.407   1_554  A
C1031      C1036   1.394       .  A
C1031      F1038   1.358       .  S
C1032      C1241   1.408       .  A
C1033      C1240   1.408       .  A
C1033      C1242   1.405       .  A
C1033      F1040   1.357       .  S
C1034      C1241   1.405       .  A
C1034      C1035   1.407   1_556  A
C1034      F1247   1.357       .  S
C1035      C1036   1.404       .  A
C1036      F1037   1.359       .  S
F1039      C1242   1.357       .  S
C1041      C1042   1.412       .  A
C1041      C1046   1.413       .  A
C1042      C1043   1.405       .  A
C1042      H1047   1.080       .  S
C1043      C1044   1.399       .  A
C1043      C1240   1.484       .  S
C1044      C1045   1.400       .  A
C1044      H1048   1.084       .  S
C1045      C1046   1.407       .  A
C1045      C1230   1.482       .  S
C1046      H1049   1.081       .  S
C1050      C1051   1.403       .  A
C1050      C1055   1.402       .  A
C1050      C1190   1.476       .  S
C1051      C1052   1.404       .  A
C1051      H1056   1.084       .  S
C1052      C1053   1.401       .  A
C1052      C1210   1.480       .  S
C1053      C1054   1.404       .  A
C1053      H1057   1.084       .  S
C1054      C1055   1.404       .  A
C1054      C1200   1.482       .  S
C1055      H1058   1.084       .  S
C1059      C1060   1.396       .  A
C1059      C1064   1.408       .  A
C1059      C1180   1.487       .  S
C1060      C1061   1.396       .  A
C1060      H1065   1.084       .  S
C1061      C1062   1.408       .  A
C1061      C1160   1.490       .  S
C1062      C1063   1.419       .  A
C1062      H1066   1.079       .  S
C1063      C1064   1.419       .  A
C1063      C1170   1.519       .  S
C1064      H1067   1.078       .  S
C1068      C1069   1.399       .  A
C1068      C1073   1.396       .  A
C1068      C1153   1.465       .  S
C1069      C1070   1.405       .  A
C1069      H1074   1.084       .  S
C1070      C1071   1.400       .  A
C1070      C1140   1.474       .  S
C1071      C1072   1.397       .  A
C1071      H1075   1.084       .  S
C1072      C1073   1.397       .  A
C1072      C1130   1.470       .  S
C1073      H1076   1.085       .  S
C1077      C1243   1.474       .  S
C1077      O1092   1.262       .  A
C1077      O1079   1.259       .  A
Tb1078     O1516   2.357       .  S
Tb1078     O1517   2.351   1_545  S
Tb1078     O1500   2.370   1_545  S
Tb1078     O1082   2.357       .  S
Tb1078     O1099   2.366       .  S
O1079     Tb1083   2.345       .  S
O1080      C1091   1.261       .  A
O1080     Tb1499   2.360       .  S
C1081      C1163   1.485       .  S
C1081      O1086   1.270       .  A
C1081      O1102   1.273       .  A
Tb1083     O1496   2.360       .  S
Tb1083     O1092   2.369       .  S
Tb1083     O1086   2.343       .  S
Tb1083     O1509   2.359   1_545  S
Tb1083     O1095   2.334       .  S
Tb1083     O1501   2.351   1_545  S
O1084      C1506   1.264       .  A
O1084     Tb1494   2.370       .  S
O1085     Tb1499   2.351       .  S
O1087      C1097   1.271   1_565  A
C1088      C1233   1.487       .  S
C1088      O1101   1.273       .  A
O1089      C1096   1.267       .  A
C1090      C1589   1.483       .  S
C1090      O1500   1.264       .  A
C1090      O1099   1.260   1_565  A
C1091      C1183   1.486       .  S
C1091      O1093   1.263       .  A
O1093     Tb1499   2.359       .  S
O1095      C1096   1.268       .  A
C1096      C1123   1.459       .  S
C1097      C1122   1.468       .  S
C1098      C1223   1.474       .  S
C1098      O1308   1.262       .  A
O1100      C1306   1.262       .  A
O1100     Tb1494   2.357       .  S
O1101     Tb1494   2.351       .  S
C1103      C1213   1.470       .  S
C1103      O1118   1.260       .  A
C1103      O1105   1.260       .  A
Tb1104     O1542   2.359       .  S
Tb1104     O1543   2.337   1_545  S
Tb1104     O1526   2.346   1_545  S
Tb1104     O1120   2.328       .  S
Tb1104     O1108   2.345       .  S
Tb1104     O1125   2.324       .  S
O1105     Tb1109   2.344       .  S
O1106      C1117   1.259       .  A
O1106     Tb1525   2.341       .  S
C1107      C1133   1.475       .  S
C1107      O1112   1.266       .  A
C1107      O1128   1.264       .  A
O1108      C1124   1.260       .  A
Tb1109     O1522   2.341       .  S
Tb1109     O1113   2.346       .  S
Tb1109     O1118   2.361       .  S
Tb1109     O1112   2.334       .  S
Tb1109     O1535   2.340   1_545  S
Tb1109     O1121   2.358       .  S
Tb1109     O1527   2.343   1_545  S
O1110      C1532   1.263       .  A
O1110     Tb1520   2.346       .  S
O1111     Tb1525   2.343       .  S
O1113      C1123   1.269       .  A
C1114      C1203   1.484       .  S
C1114      O1127   1.266       .  A
O1115      C1122   1.268       .  A
C1116      C1559   1.465       .  S
C1116      O1526   1.263       .  A
C1116      O1125   1.260   1_565  A
C1117      C1150   1.472       .  S
C1117      O1119   1.262       .  A
O1119     Tb1525   2.340       .  S
O1121      C1122   1.270       .  A
C1124      C1193   1.473       .  S
C1124      O1542   1.263       .  A
O1126      C1540   1.263       .  A
O1126     Tb1520   2.359       .  S
O1127     Tb1520   2.337       .  S
C1129      C1130   1.403       .  A
C1129      C1134   1.396       .  A
C1129      F1136   1.358       .  S
C1130      C1131   1.404       .  A
C1131      C1132   1.389       .  A
C1131      F1138   1.359       .  S
C1132      C1133   1.410       .  A
C1132      F1137   1.359       .  S
C1133      C1134   1.409       .  A
C1134      F1135   1.357       .  S
C1139      C1140   1.401       .  A
C1139      C1560   1.390       .  A
C1139      F1562   1.357       .  S
C1140      C1141   1.410       .  A
C1141      C1142   1.395       .  A
C1141      F1148   1.358       .  S
C1142      C1143   1.402       .  A
C1142      F1147   1.358       .  S
C1143      C1560   1.404       .  A
C1143      C1532   1.465       .  S
C1144      C1555   1.390       .  A
C1144      C1559   1.404       .  A
C1144      F1145   1.353   1_565  S
F1146      C1555   1.357       .  S
C1149      C1150   1.411       .  A
C1149      C1154   1.397       .  A
C1149      F1156   1.356       .  S
C1150      C1151   1.406       .  A
C1151      C1152   1.391       .  A
C1151      F1158   1.358       .  S
C1152      C1153   1.403       .  A
C1152      F1157   1.358       .  S
C1153      C1154   1.400       .  A
C1154      F1155   1.358       .  S
C1159      C1160   1.410       .  A
C1159      C1164   1.398       .  A
C1159      F1166   1.358       .  S
C1160      C1161   1.407       .  A
C1161      C1162   1.400       .  A
C1161      F1168   1.358       .  S
C1162      C1163   1.412       .  A
C1162      F1167   1.358       .  S
C1163      C1164   1.407       .  A
C1164      F1165   1.358       .  S
C1169      C1170   1.420       .  A
C1169      C1174   1.404       .  A
C1169      F1176   1.357       .  S
C1170      C1171   1.421       .  A
C1171      C1588   1.402       .  A
C1171      F1594   1.355       .  S
C1172      C1587   1.402       .  A
C1172      C1589   1.401       .  A
C1172      F1177   1.357   1_565  S
C1173      C1588   1.401       .  A
C1173      C1174   1.400       .  A
C1173      C1506   1.483       .  S
C1174      F1175   1.358       .  S
F1178      C1587   1.355       .  S
C1179      C1180   1.409       .  A
C1179      C1184   1.395       .  A
C1179      F1186   1.359       .  S
C1180      C1181   1.404       .  A
C1181      C1182   1.404       .  A
C1181      F1604   1.358       .  S
C1182      C1183   1.413       .  A
C1182      F1603   1.355       .  S
C1183      C1184   1.406       .  A
C1184      F1185   1.358       .  S
F1187      C1598   1.355   1_545  S
F1188      C1597   1.358       .  S
C1189      C1190   1.405       .  A
C1189      C1194   1.402       .  A
C1189      F1196   1.358       .  S
C1190      C1191   1.404       .  A
C1191      C1192   1.395       .  A
C1191      F1198   1.358       .  S
C1192      C1193   1.406       .  A
C1192      F1197   1.357       .  S
C1193      C1194   1.406       .  A
C1194      F1195   1.357       .  S
C1199      C1200   1.406       .  A
C1199      C1204   1.393       .  A
C1199      F1206   1.358       .  S
C1200      C1201   1.406       .  A
C1201      C1202   1.401       .  A
C1201      F1208   1.357       .  S
C1202      C1203   1.411       .  A
C1202      F1207   1.358       .  S
C1203      C1204   1.410       .  A
C1204      F1205   1.358       .  S
C1209      C1210   1.409       .  A
C1209      C1214   1.403       .  A
C1209      F1216   1.358       .  S
C1210      C1211   1.406       .  A
C1211      C1212   1.393       .  A
C1211      F1218   1.358       .  S
C1212      C1213   1.404       .  A
C1212      F1217   1.358       .  S
C1213      C1214   1.405       .  A
C1214      F1215   1.358       .  S
C1219      C1224   1.396       .  A
C1219      F1226   1.356       .  S
C1220      C1221   1.418       .  A
C1221      C1222   1.404       .  A
C1221      F1228   1.357       .  S
C1222      C1223   1.400   1_556  A
C1222      F1227   1.358       .  S
C1224      F1641   1.357       .  S
F1225      C1640   1.357       .  S
C1229      C1230   1.403       .  A
C1229      C1234   1.397       .  A
C1229      F1236   1.358       .  S
C1230      C1231   1.406       .  A
C1231      C1232   1.402       .  A
C1232      C1233   1.410       .  A
C1232      F1237   1.358       .  S
C1233      C1234   1.412       .  A
C1234      F1235   1.358       .  S
C1239      C1240   1.407       .  A
C1239      C1244   1.394       .  A
C1239      F1246   1.358       .  S
C1241      F1248   1.357       .  S
C1242      C1243   1.407       .  A
C1243      C1244   1.404       .  A
C1244      F1245   1.359       .  S
C1249      C1250   1.412       .  A
C1249      C1254   1.413       .  A
C1249      C1636   1.509       .  S
C1250      C1251   1.405       .  A
C1250      H1255   1.080       .  S
C1251      C1252   1.399       .  A
C1251      C1448   1.484       .  S
C1252      C1253   1.400       .  A
C1252      H1256   1.084   1_556  S
C1253      C1254   1.407       .  A
C1253      C1438   1.482   1_556  S
C1254      H1257   1.081   1_556  S
C1258      C1259   1.403       .  A
C1258      C1263   1.402       .  A
C1258      C1398   1.476       .  S
C1259      C1260   1.404       .  A
C1259      H1264   1.084       .  S
C1260      C1261   1.401       .  A
C1260      C1418   1.480       .  S
C1261      C1262   1.404       .  A
C1261      H1265   1.084       .  S
C1262      C1263   1.404       .  A
C1262      C1408   1.482       .  S
C1263      H1266   1.084       .  S
C1267      C1268   1.396       .  A
C1267      C1272   1.408       .  A
C1267      C1388   1.487       .  S
C1268      C1269   1.396       .  A
C1268      H1273   1.084       .  S
C1269      C1270   1.408       .  A
C1269      C1368   1.490       .  S
C1270      C1271   1.419       .  A
C1270      H1274   1.079       .  S
C1271      C1272   1.419       .  A
C1271      C1378   1.519       .  S
C1272      H1275   1.078       .  S
C1276      C1277   1.399       .  A
C1276      C1281   1.396       .  A
C1276      C1361   1.465       .  S
C1277      C1278   1.405       .  A
C1277      H1282   1.084       .  S
C1278      C1279   1.400       .  A
C1278      C1348   1.474       .  S
C1279      C1280   1.397       .  A
C1279      H1283   1.084       .  S
C1280      C1281   1.397       .  A
C1280      C1338   1.470       .  S
C1281      H1284   1.085       .  S
C1285      C1451   1.474       .  S
C1285      O1300   1.262       .  A
C1285      O1287   1.259       .  A
Tb1286     O1290   2.357       .  S
Tb1286     O1307   2.366       .  S
O1287     Tb1291   2.345       .  S
O1288      C1299   1.261   1_545  A
C1289      C1371   1.485       .  S
C1289      O1294   1.270       .  A
C1289      O1310   1.273       .  A
O1290      C1514   1.261       .  A
Tb1291     O1503   2.338   1_554  S
Tb1291     O1300   2.369       .  S
Tb1291     O1294   2.343       .  S
Tb1291     O1303   2.334       .  S
O1295      C1305   1.271       .  A
O1295     Tb1499   2.338       .  S
C1296      C1441   1.487       .  S
C1296      O1309   1.273       .  A
O1297      C1304   1.267       .  A
C1298      O1307   1.260       .  A
C1299      C1391   1.486       .  S
C1299      O1301   1.263       .  A
O1302      C1513   1.272       .  A
O1303      C1304   1.268       .  A
C1304      C1331   1.459       .  S
C1305      C1330   1.468       .  S
C1305      O1510   1.272       .  A
C1306      C1431   1.474       .  S
C1306      O1498   1.261       .  A
C1311      C1421   1.470       .  S
C1311      O1326   1.260       .  A
C1311      O1313   1.260       .  A
Tb1312     O1328   2.328       .  S
Tb1312     O1316   2.345       .  S
Tb1312     O1333   2.324       .  S
O1313     Tb1317   2.344       .  S
O1314      C1325   1.259   1_545  A
C1315      C1341   1.475       .  S
C1315      O1320   1.266       .  A
C1315      O1336   1.264       .  A
O1316      C1332   1.260       .  A
Tb1317     O1321   2.346       .  S
Tb1317     O1326   2.361       .  S
Tb1317     O1320   2.334       .  S
Tb1317     O1329   2.358       .  S
O1321      C1331   1.269       .  A
C1322      C1411   1.484       .  S
C1322      O1335   1.266       .  A
O1323      C1330   1.268       .  A
C1324      O1333   1.260       .  A
C1325      C1358   1.472       .  S
C1325      O1327   1.262       .  A
O1329      C1330   1.270       .  A
C1332      C1401   1.473       .  S
C1337      C1338   1.403       .  A
C1337      C1342   1.396       .  A
C1337      F1344   1.358       .  S
C1338      C1339   1.404       .  A
C1339      C1340   1.389       .  A
C1339      F1346   1.359       .  S
C1340      C1341   1.410       .  A
C1340      F1345   1.359       .  S
C1341      C1342   1.409       .  A
C1342      F1343   1.357       .  S
C1347      C1348   1.401       .  A
C1348      C1349   1.410       .  A
C1349      C1350   1.395       .  A
C1349      F1356   1.358       .  S
C1350      C1351   1.402       .  A
C1350      F1355   1.358       .  S
C1352      F1353   1.353       .  S
C1357      C1358   1.411       .  A
C1357      C1362   1.397       .  A
C1357      F1364   1.356   1_565  S
C1358      C1359   1.406       .  A
C1359      C1360   1.391       .  A
C1359      F1366   1.358       .  S
C1360      C1361   1.403       .  A
C1360      F1365   1.358       .  S
C1361      C1362   1.400       .  A
C1362      F1363   1.358       .  S
C1367      C1368   1.410       .  A
C1367      C1372   1.398       .  A
C1367      F1374   1.358       .  S
C1368      C1369   1.407       .  A
C1369      C1370   1.400       .  A
C1369      F1376   1.358       .  S
C1370      C1371   1.412       .  A
C1370      F1375   1.358       .  S
C1371      C1372   1.407       .  A
C1372      F1373   1.358       .  S
C1377      C1378   1.420       .  A
C1377      C1382   1.404       .  A
C1377      F1384   1.357       .  S
C1378      C1379   1.421       .  A
C1380      F1385   1.357       .  S
C1381      C1382   1.400       .  A
C1382      F1383   1.358       .  S
C1387      C1388   1.409       .  A
C1387      C1392   1.395       .  A
C1387      F1394   1.359       .  S
C1388      C1389   1.404       .  A
C1389      C1390   1.404       .  A
C1390      C1391   1.413       .  A
C1391      C1392   1.406       .  A
C1392      F1393   1.358       .  S
C1397      C1398   1.405       .  A
C1397      C1402   1.402       .  A
C1397      F1404   1.358       .  S
C1398      C1399   1.404       .  A
C1399      C1400   1.395       .  A
C1399      F1406   1.358       .  S
C1400      C1401   1.406       .  A
C1400      F1405   1.357       .  S
C1401      C1402   1.406       .  A
C1402      F1403   1.357       .  S
C1407      C1408   1.406       .  A
C1407      C1412   1.393       .  A
C1407      F1414   1.358       .  S
C1408      C1409   1.406       .  A
C1409      C1410   1.401       .  A
C1409      F1416   1.357       .  S
C1410      C1411   1.411       .  A
C1410      F1415   1.358       .  S
C1411      C1412   1.410       .  A
C1412      F1413   1.358       .  S
C1417      C1418   1.409       .  A
C1417      C1422   1.403       .  A
C1417      F1424   1.358       .  S
C1418      C1419   1.406       .  A
C1419      C1420   1.393       .  A
C1419      F1426   1.358       .  S
C1420      C1421   1.404       .  A
C1420      F1425   1.358       .  S
C1421      C1422   1.405       .  A
C1422      F1423   1.358       .  S
C1427      C1636   1.418   1_554  A
C1427      C1432   1.396       .  A
C1427      F1434   1.356       .  S
C1428      C1635   1.418       .  A
C1428      C1429   1.418       .  A
C1428      C1457   1.509       .  S
C1429      C1430   1.404       .  A
C1429      F1436   1.357       .  S
C1430      C1431   1.400       .  A
C1430      F1435   1.358       .  S
C1431      C1640   1.399       .  A
C1432      C1639   1.399       .  A
C1437      C1438   1.403       .  A
C1437      C1442   1.397       .  A
C1437      F1444   1.358       .  S
C1438      C1439   1.406   1_554  A
C1439      C1440   1.402       .  A
C1439      F1654   1.358       .  S
C1440      C1441   1.410   1_556  A
C1440      F1445   1.358       .  S
C1441      C1442   1.412       .  A
C1442      F1443   1.358       .  S
F1446      C1647   1.358       .  S
C1447      C1448   1.407   1_554  A
C1447      C1452   1.394       .  A
C1447      F1454   1.358       .  S
C1448      C1657   1.408       .  A
C1449      C1656   1.408       .  A
C1449      C1658   1.405       .  A
C1449      F1456   1.357       .  S
C1450      C1657   1.405       .  A
C1450      C1451   1.407   1_556  A
C1450      F1663   1.357       .  S
C1451      C1452   1.404       .  A
C1452      F1453   1.359       .  S
F1455      C1658   1.357       .  S
C1457      C1458   1.412       .  A
C1457      C1462   1.413       .  A
C1458      C1459   1.405       .  A
C1458      H1463   1.080       .  S
C1459      C1460   1.399       .  A
C1459      C1656   1.484       .  S
C1460      C1461   1.400       .  A
C1460      H1464   1.084       .  S
C1461      C1462   1.407       .  A
C1461      C1646   1.482       .  S
C1462      H1465   1.081       .  S
C1466      C1467   1.403       .  A
C1466      C1471   1.402       .  A
C1466      C1606   1.476       .  S
C1467      C1468   1.404       .  A
C1467      H1472   1.084       .  S
C1468      C1469   1.401       .  A
C1468      C1626   1.480       .  S
C1469      C1470   1.404       .  A
C1469      H1473   1.084       .  S
C1470      C1471   1.404       .  A
C1470      C1616   1.482       .  S
C1471      H1474   1.084       .  S
C1475      C1476   1.396       .  A
C1475      C1480   1.408       .  A
C1475      C1596   1.487       .  S
C1476      C1477   1.396       .  A
C1476      H1481   1.084       .  S
C1477      C1478   1.408       .  A
C1477      C1576   1.490       .  S
C1478      C1479   1.419       .  A
C1478      H1482   1.079       .  S
C1479      C1480   1.419       .  A
C1479      C1586   1.519       .  S
C1480      H1483   1.078       .  S
C1484      C1485   1.399       .  A
C1484      C1489   1.396       .  A
C1484      C1569   1.465       .  S
C1485      C1486   1.405       .  A
C1485      H1490   1.084       .  S
C1486      C1487   1.400       .  A
C1486      C1556   1.474       .  S
C1487      C1488   1.397       .  A
C1487      H1491   1.084       .  S
C1488      C1489   1.397       .  A
C1488      C1546   1.470       .  S
C1489      H1492   1.085       .  S
C1493      C1659   1.474       .  S
C1493      O1508   1.262       .  A
C1493      O1495   1.259       .  A
Tb1494     O1498   2.357       .  S
Tb1494     O1515   2.366       .  S
O1495     Tb1499   2.345       .  S
O1496      C1507   1.261   1_545  A
C1497      C1579   1.485       .  S
C1497      O1502   1.270       .  A
C1497      O1518   1.273       .  A
Tb1499     O1508   2.369       .  S
Tb1499     O1502   2.343       .  S
Tb1499     O1511   2.334       .  S
O1503      C1513   1.271       .  A
C1504      C1649   1.487       .  S
C1504      O1517   1.273       .  A
O1505      C1512   1.267       .  A
C1506      O1515   1.260       .  A
C1507      C1599   1.486       .  S
C1507      O1509   1.263       .  A
O1511      C1512   1.268       .  A
C1512      C1539   1.459       .  S
C1513      C1538   1.468       .  S
C1514      C1639   1.474       .  S
C1519      C1629   1.470       .  S
C1519      O1534   1.260       .  A
C1519      O1521   1.260       .  A
Tb1520     O1536   2.328       .  S
Tb1520     O1524   2.345       .  S
Tb1520     O1541   2.324       .  S
O1521     Tb1525   2.344       .  S
O1522      C1533   1.259   1_545  A
C1523      C1549   1.475       .  S
C1523      O1528   1.266       .  A
C1523      O1544   1.264       .  A
O1524      C1540   1.260       .  A
Tb1525     O1529   2.346       .  S
Tb1525     O1534   2.361       .  S
Tb1525     O1528   2.334       .  S
Tb1525     O1537   2.358       .  S
O1529      C1539   1.269       .  A
C1530      C1619   1.484       .  S
C1530      O1543   1.266       .  A
O1531      C1538   1.268       .  A
C1532      O1541   1.260       .  A
C1533      C1566   1.472       .  S
C1533      O1535   1.262       .  A
O1537      C1538   1.270       .  A
C1540      C1609   1.473       .  S
C1545      C1546   1.403       .  A
C1545      C1550   1.396       .  A
C1545      F1552   1.358       .  S
C1546      C1547   1.404       .  A
C1547      C1548   1.389       .  A
C1547      F1554   1.359       .  S
C1548      C1549   1.410       .  A
C1548      F1553   1.359       .  S
C1549      C1550   1.409       .  A
C1550      F1551   1.357       .  S
C1555      C1556   1.401       .  A
C1556      C1557   1.410       .  A
C1557      C1558   1.395       .  A
C1557      F1564   1.358       .  S
C1558      C1559   1.402       .  A
C1558      F1563   1.358       .  S
C1560      F1561   1.353       .  S
C1565      C1566   1.411       .  A
C1565      C1570   1.397       .  A
C1565      F1572   1.356   1_565  S
C1566      C1567   1.406       .  A
C1567      C1568   1.391       .  A
C1567      F1574   1.358       .  S
C1568      C1569   1.403       .  A
C1568      F1573   1.358       .  S
C1569      C1570   1.400       .  A
C1570      F1571   1.358       .  S
C1575      C1576   1.410       .  A
C1575      C1580   1.398       .  A
C1575      F1582   1.358       .  S
C1576      C1577   1.407       .  A
C1577      C1578   1.400       .  A
C1577      F1584   1.358       .  S
C1578      C1579   1.412       .  A
C1578      F1583   1.358       .  S
C1579      C1580   1.407       .  A
C1580      F1581   1.358       .  S
C1585      C1586   1.420       .  A
C1585      C1590   1.404       .  A
C1585      F1592   1.357       .  S
C1586      C1587   1.421       .  A
C1588      F1593   1.357       .  S
C1589      C1590   1.400       .  A
C1590      F1591   1.358       .  S
C1595      C1596   1.409       .  A
C1595      C1600   1.395       .  A
C1595      F1602   1.359       .  S
C1596      C1597   1.404       .  A
C1597      C1598   1.404       .  A
C1598      C1599   1.413       .  A
C1599      C1600   1.406       .  A
C1600      F1601   1.358       .  S
C1605      C1606   1.405       .  A
C1605      C1610   1.402       .  A
C1605      F1612   1.358       .  S
C1606      C1607   1.404       .  A
C1607      C1608   1.395       .  A
C1607      F1614   1.358       .  S
C1608      C1609   1.406       .  A
C1608      F1613   1.357       .  S
C1609      C1610   1.406       .  A
C1610      F1611   1.357       .  S
C1615      C1616   1.406       .  A
C1615      C1620   1.393       .  A
C1615      F1622   1.358       .  S
C1616      C1617   1.406       .  A
C1617      C1618   1.401       .  A
C1617      F1624   1.357       .  S
C1618      C1619   1.411       .  A
C1618      F1623   1.358       .  S
C1619      C1620   1.410       .  A
C1620      F1621   1.358       .  S
C1625      C1626   1.409       .  A
C1625      C1630   1.403       .  A
C1625      F1632   1.358       .  S
C1626      C1627   1.406       .  A
C1627      C1628   1.393       .  A
C1627      F1634   1.358       .  S
C1628      C1629   1.404       .  A
C1628      F1633   1.358       .  S
C1629      C1630   1.405       .  A
C1630      F1631   1.358       .  S
C1635      C1640   1.396       .  A
C1635      F1642   1.356       .  S
C1636      C1637   1.418       .  A
C1637      C1638   1.404       .  A
C1637      F1644   1.357       .  S
C1638      C1639   1.400   1_556  A
C1638      F1643   1.358       .  S
C1645      C1646   1.403       .  A
C1645      C1650   1.397       .  A
C1645      F1652   1.358       .  S
C1646      C1647   1.406       .  A
C1647      C1648   1.402       .  A
C1648      C1649   1.410       .  A
C1648      F1653   1.358       .  S
C1649      C1650   1.412       .  A
C1650      F1651   1.358       .  S
C1655      C1656   1.407       .  A
C1655      C1660   1.394       .  A
C1655      F1662   1.358       .  S
C1657      F1664   1.357       .  S
C1658      C1659   1.407       .  A
C1659      C1660   1.404       .  A
C1660      F1661   1.359       .  S
