geometry optimzed in LAMMPS
_audit_creation_date              2020-12-01 
_audit_creation_method            'lammps2cif' 
_symmetry_space_group_name_H-M    'P1' 
_symmetry_Int_Tables_number       1 
_symmetry_cell_setting            triclinic 
loop_ 
_symmetry_equiv_pos_as_xyz 
  x,y,z 
_cell_length_a                    41.01542152 
_cell_length_b                    41.115322140053124 
_cell_length_c                    37.17541254104596 
_cell_angle_alpha                 90.0478595384263 
_cell_angle_beta                  89.55575377217035 
_cell_angle_gamma                 89.99355583257322 
loop_ 
_atom_site_label 
_atom_site_type_symbol 
_atom_site_fract_x 
_atom_site_fract_y 
_atom_site_fract_z 
_atom_site_charge 
C1          C  0.30594822  0.23347510  0.87458239     0.03600
C2          C  0.30852939  0.23934353  0.83742513    -0.12500
C3          C  0.28695026  0.26069331  0.82034452     0.01100
C4          C  0.26242290  0.27577111  0.84067022    -0.11000
C5          C  0.25991893  0.27053108  0.87778707     0.03600
C6          C  0.28141828  0.24906623  0.89476244    -0.10500
H7          H  0.32705480  0.22685233  0.82170852     0.09200
H8          H  0.24500170  0.29156197  0.82753268     0.06700
H9          H  0.27919480  0.24466674  0.92339728     0.06600
Zn10       Zn  0.48330033  0.48548494  0.92161700     1.49700
Zn11       Zn  0.47443326  0.98775651  0.97883840     1.49400
Zn12       Zn  0.02733869  0.01757317  0.97688841     1.49100
Zn13       Zn  0.51796165  0.01707157  0.91491800     1.49500
O14         O  0.51278281  0.98066798  0.94830027    -1.83600
O15         O  0.44288763  0.45942650  0.93148714    -0.74300
O16         O  0.48769762  0.99248195  0.03063466    -0.74100
O17         O  0.07882805  0.43605016  0.95690089    -0.73600
O18         O  0.41963162  0.48659405  0.97669798    -0.74300
O19         O  0.04553990  0.41011599  0.91985571    -0.73900
O20         O  0.01590631  0.01225821  0.02906240    -0.74500
O21         O  0.02947437  0.09094401  0.93713642    -0.73800
O22         O  0.44946715  0.02793674  0.96403378    -0.74600
O23         O  0.05530115  0.05753063  0.97401274    -0.74000
O24         O  0.47966268  0.04743573  0.91918222    -0.74500
O25         O  0.51787819  0.00165541  0.86353414    -0.74400
O26         O  0.48339460  0.49969651  0.86998179    -0.74200
C27         C  0.42044223  0.46264757  0.95498196     0.77600
C28         C  0.51372693  0.98512525  0.04722696     0.78100
C29         C  0.07218557  0.41167794  0.93705850     0.77100
C30         C  0.05296735  0.08494459  0.95842061     0.77500
C31         C  0.45464365  0.04903023  0.93959310     0.78600
C32         C  0.50952702  0.97480484  0.84912409     0.77600
C33         C  0.21599583  0.25576582  0.02762332     0.03600
C34         C  0.22125706  0.25502403  0.06495872    -0.12500
C35         C  0.24329111  0.27667586  0.08091001     0.01100
C36         C  0.26025988  0.29885953  0.05924769    -0.11000
C37         C  0.25471838  0.30023998  0.02210344     0.03600
C38         C  0.23270911  0.27857327  0.00630099    -0.10500
H39         H  0.20814983  0.23768880  0.08156900     0.09200
H40         H  0.27784536  0.31514961  0.07130399     0.06700
H41         H  0.22852591  0.27956433  0.97770436     0.06600
C42         C  0.04995348  0.50019307  0.36995572     0.03600
C43         C  0.05013345  0.49605504  0.33245866    -0.12500
C44         C  0.98159702  0.98989799  0.31679820     0.01100
C45         C  0.49507012  0.02890370  0.33473197    -0.11000
C46         C  0.49570698  0.03119982  0.37236903     0.03600
C47         C  0.02843493  0.52271562  0.38580253    -0.10500
H48         H  0.06689725  0.47888790  0.32013159     0.09200
H49         H  0.47768716  0.04320490  0.31965003     0.06700
H50         H  0.96664938  0.97310587  0.41847806     0.06600
Zn51       Zn  0.28520402  0.31192547  0.41722697     1.49700
Zn52       Zn  0.31814259  0.26873829  0.47836090     1.49400
Zn53       Zn  0.24233392  0.28231317  0.48198491     1.49100
Zn54       Zn  0.27186416  0.23551640  0.42095376     1.49500
O55         O  0.27930705  0.27469438  0.44945887    -1.83600
O56         O  0.32631408  0.33723817  0.42956972    -0.74300
O57         O  0.30715059  0.26746372  0.53100257    -0.74100
O58         O  0.21766596  0.32292654  0.46862869    -0.73600
O59         O  0.34818815  0.30677127  0.47245895    -0.74300
O60         O  0.24637306  0.34188442  0.42218950    -0.73900
O61         O  0.25606522  0.28442300  0.53414521    -0.74500
O62         O  0.23013730  0.21274810  0.43590607    -0.73800
O63         O  0.34227065  0.22773605  0.46513226    -0.74600
O64         O  0.21052227  0.24540533  0.47808603    -0.74000
O65         O  0.30923532  0.20396305  0.42639445    -0.74500
O66         O  0.26907004  0.24674612  0.36828146    -0.74400
O67         O  0.28555427  0.29807448  0.36480161    -0.74200
C68         C  0.34847002  0.33208273  0.45277566     0.77600
C69         C  0.28244306  0.27606509  0.54952959     0.78100
C70         C  0.22170409  0.34325923  0.44317845     0.77100
C71         C  0.20826901  0.21970451  0.45923378     0.77500
C72         C  0.33560474  0.20411455  0.44433751     0.78600
C73         C  0.27613424  0.27184712  0.34975448     0.77600
C74         C  0.49744140  0.51170862  0.52760222     0.03600
C75         C  0.97705295  0.47506934  0.49712764    -0.12500
C76         C  0.02671507  0.06654215  0.52418867     0.01100
C77         C  0.02122718  0.06977188  0.56138753    -0.11000
C78         C  0.99828309  0.05015056  0.57913581     0.03600
C79         C  0.49238930  0.51584283  0.56462871    -0.10500
H80         H  0.01337186  0.04019739  0.47605898     0.09200
H81         H  0.03530820  0.08723128  0.57669176     0.06700
H82         H  0.47442101  0.50102671  0.57853109     0.06600
C83         C  0.07282249  0.12964767  0.46847967    -0.22000
C84         C  0.10412345  0.12653649  0.48297839     0.10000
C85         C  0.11025792  0.10227761  0.50882664     0.10400
C86         C  0.08469430  0.08214453  0.52032851    -0.16900
C87         C  0.05296095  0.08600596  0.50707091    -0.27300
C88         C  0.04697511  0.10984296  0.48040529     0.18700
C89         C  0.12919344  0.15126322  0.47431351     0.12700
C90         C  0.14356660  0.09833918  0.52511540    -0.11700
H91         H  0.08922461  0.06388754  0.54070509     0.13000
C92         C  0.01357667  0.11633818  0.46534259    -0.22500
H93         H  0.06821860  0.14861912  0.44891419     0.08600
C94         C  0.15195115  0.14708693  0.44618340     0.05000
C95         C  0.17701797  0.17004575  0.44160935    -0.19700
C96         C  0.17995816  0.19721820  0.46460103    -0.12000
C97         C  0.15615611  0.20161437  0.49232595     0.13700
C98         C  0.13121884  0.17855873  0.49659574    -0.22400
C99         C  0.14987428  0.11826802  0.42128042    -0.05500
H100        H  0.19461058  0.16641760  0.42008312     0.15200
C101        C  0.15664512  0.22992764  0.51819423    -0.15700
H102        H  0.11344280  0.18136523  0.51811201     0.09500
H103        H  0.01392725  0.11187800  0.43587671     0.07400
H104        H  0.47647112  0.08147322  0.52561458     0.08600
H105        H  0.45799101  0.04317221  0.51438616     0.07600
H106        H  0.15068525  0.12108671  0.53912606     0.02500
H107        H  0.16174862  0.09290132  0.50368652     0.03000
H108        H  0.14412724  0.07820283  0.54499405     0.06500
H109        H  0.16955423  0.11862236  0.40058488     0.05500
H110        H  0.12606244  0.11848454  0.40728523    -0.00300
H111        H  0.15208150  0.09537437  0.43685892     0.01200
H112        H  0.13614777  0.22888939  0.53786323     0.04800
H113        H  0.15425918  0.25314546  0.50321372     0.06800
H114        H  0.17959561  0.22971049  0.53383614     0.07700
C115        C  0.42584445  0.46458066  0.49092249    -0.22000
C116        C  0.44024733  0.43410018  0.48518817     0.10000
C117        C  0.47403333  0.43015292  0.49016580     0.10400
C118        C  0.49275798  0.45682813  0.50133062    -0.16900
C119        C  0.47811624  0.48695756  0.50860752    -0.27300
C120        C  0.44432883  0.49106178  0.50287799     0.18700
C121        C  0.41890010  0.40624010  0.47668205     0.12700
C122        C  0.48998084  0.39754192  0.48516027    -0.11700
H123        H  0.51859125  0.45373305  0.50632208     0.13000
C124        C  0.42695627  0.52274612  0.51000808    -0.22500
H125        H  0.39980904  0.46741937  0.48723938     0.08600
C126        C  0.40375516  0.38824330  0.50437999     0.05000
C127        C  0.38177786  0.36353987  0.49542043    -0.19700
C128        C  0.37393469  0.35687282  0.45942347    -0.12000
C129        C  0.38986444  0.37438898  0.43160404     0.13700
C130        C  0.41249159  0.39871358  0.44065714    -0.22400
C131        C  0.41031536  0.39554266  0.54341864    -0.05500
H132        H  0.36973860  0.35008140  0.51679958     0.15200
C133        C  0.38367652  0.36718807  0.39253010    -0.15700
H134        H  0.42485901  0.41229421  0.41966785     0.09500
H135        H  0.37151461  0.95563222  0.56483181     0.07400
H136        H  0.41429463  0.53066655  0.48530829     0.08600
H137        H  0.40105121  0.98408872  0.54737727     0.07600
H138        H  0.48620416  0.38881973  0.45729236     0.02500
H139        H  0.47929790  0.37963240  0.50418130     0.03000
H140        H  0.51654434  0.39898202  0.49024912     0.06500
H141        H  0.39641674  0.37912400  0.56163165     0.05500
H142        H  0.40311354  0.42095149  0.54967993    -0.00300
H143        H  0.43665242  0.39240022  0.54911112     0.01200
H144        H  0.35797636  0.37276606  0.38583813     0.04800
H145        H  0.38880725  0.34114766  0.38689257     0.06800
H146        H  0.39949045  0.38208113  0.37459550     0.07700
C147        C  0.15881127  0.39683791  0.39798111    -0.22000
C148        C  0.14771418  0.41579991  0.42691474     0.10000
C149        C  0.16052266  0.41053111  0.46153773     0.10400
C150        C  0.18455595  0.38652387  0.46630315    -0.16900
C151        C  0.19649085  0.36831112  0.43702938    -0.27300
C152        C  0.18313913  0.37329754  0.40248286     0.18700
C153        C  0.12297106  0.44113818  0.41932930     0.12700
C154        C  0.14949192  0.43072749  0.49310893    -0.11700
H155        H  0.19457447  0.38240801  0.49281546     0.13000
C156        C  0.19359842  0.35317266  0.37045723    -0.22500
H157        H  0.14848319  0.40076720  0.37157185     0.08600
C158        C  0.13160734  0.46960903  0.40039137     0.05000
C159        C  0.10700986  0.48954813  0.38653565    -0.19700
C160        C  0.07394991  0.48192474  0.39153136    -0.12000
C161        C  0.06525535  0.45461893  0.41270080     0.13700
C162        C  0.08997651  0.43451257  0.42633130    -0.22400
C163        C  0.16681644  0.47856857  0.39418208    -0.05500
H164        H  0.11359289  0.51056053  0.37046210     0.15200
C165        C  0.03037795  0.44489867  0.41975502    -0.15700
H166        H  0.08342002  0.41259639  0.44089663     0.09500
H167        H  0.17921276  0.35913399  0.34614285     0.07400
H168        H  0.19004893  0.32692666  0.37638585     0.08600
H169        H  0.21961488  0.35782781  0.36396103     0.07600
H170        H  0.12276172  0.42820956  0.49706462     0.02500
H171        H  0.15564933  0.45659854  0.48807445     0.03000
H172        H  0.16166316  0.42316498  0.51834702     0.06500
H173        H  0.16926174  0.50202874  0.37963743     0.05500
H174        H  0.17921018  0.45952318  0.37792712    -0.00300
H175        H  0.17927100  0.48097675  0.42046928     0.01200
H176        H  0.02589086  0.42036292  0.40833591     0.04800
H177        H  0.46301214  0.40297972  0.35474582     0.06800
H178        H  0.02590136  0.44403435  0.44922285     0.07700
C179        C  0.40802718  0.14578433  0.45492790    -0.22000
C180        C  0.40349572  0.12542214  0.42520424     0.10000
C181        C  0.37604525  0.12975719  0.40317921     0.10400
C182        C  0.35414114  0.15502585  0.41081185    -0.16900
C183        C  0.35905094  0.17656569  0.43976523    -0.27300
C184        C  0.38635483  0.17143760  0.46251409     0.18700
C185        C  0.42901964  0.10136489  0.41570724     0.12700
C186        C  0.37040958  0.10838813  0.37083365    -0.11700
H187        H  0.33345902  0.15840621  0.39324940     0.13000
C188        C  0.39322893  0.19258664  0.49474681    -0.22500
H189        H  0.42920622  0.14203305  0.47171747     0.08600
C190        C  0.45832344  0.11124712  0.39884105     0.05000
C191        C  0.48019115  0.08760156  0.38629966    -0.19700
C192        C  0.47363339  0.05437479  0.39053526    -0.12000
C193        C  0.44480720  0.04442538  0.40850963     0.13700
C194        C  0.42279657  0.06814508  0.42087731    -0.22400
C195        C  0.46591268  0.14667843  0.39269317    -0.05500
H196        H  0.50203889  0.09502949  0.37194959     0.18400
C197        C  0.43584472  0.00922101  0.41381789    -0.15700
H198        H  0.40026269  0.06068850  0.43389160     0.09500
H199        H  0.39861371  0.21783275  0.48596714     0.07400
H200        H  0.41473765  0.18388034  0.50996161     0.08600
H201        H  0.37197495  0.19238134  0.51340960     0.07600
H202        H  0.36725992  0.08274336  0.37947782     0.02500
H203        H  0.39155813  0.11009306  0.35211313     0.03000
H204        H  0.34819618  0.11564603  0.35593824     0.06500
H205        H  0.48947599  0.15001224  0.37822729     0.05500
H206        H  0.46760946  0.15949151  0.41889576    -0.00300
H207        H  0.44641066  0.15798413  0.37636217     0.01200
H208        H  0.43206945  0.00442644  0.44292490     0.04800
H209        H  0.45473979  0.99221695  0.40364706     0.06800
H210        H  0.41276227  0.00394904  0.39953463     0.07700
C211        C  0.24612365  0.30045439  0.17976337    -0.22000
C212        C  0.26181998  0.27339236  0.19464856     0.10000
C213        C  0.27113099  0.24723881  0.17216565     0.10400
C214        C  0.26453670  0.24878160  0.13516503    -0.16900
C215        C  0.24904446  0.27596961  0.12020265    -0.27300
C216        C  0.23966995  0.30211483  0.14276672     0.18700
C217        C  0.26679186  0.27238608  0.23413459     0.12700
C218        C  0.28834170  0.21793903  0.18717818    -0.11700
H219        H  0.27174841  0.22885429  0.11773779     0.13000
C220        C  0.22206910  0.33135895  0.12809470    -0.22500
H221        H  0.23868171  0.32022381  0.19728366     0.08600
C222        C  0.29148928  0.29060264  0.25101602     0.05000
C223        C  0.29417786  0.28972196  0.28868796    -0.19700
C224        C  0.27290908  0.27078566  0.30991489    -0.12000
C225        C  0.24821025  0.25238989  0.29268788     0.13700
C226        C  0.24551951  0.25355356  0.25508289    -0.22400
C227        C  0.31511960  0.31071924  0.22922994    -0.05500
H228        H  0.31310233  0.30382492  0.30162284     0.15200
C229        C  0.22368545  0.23244703  0.31356032    -0.15700
H230        H  0.22644001  0.23992588  0.24182538     0.09500
H231        H  0.21512648  0.34870239  0.14975887     0.07400
H232        H  0.19947651  0.32349689  0.11431420     0.08600
H233        H  0.23797625  0.34452886  0.10877008     0.07600
H234        H  0.27249433  0.20563925  0.20730666     0.02500
H235        H  0.31133338  0.22564071  0.20026425     0.03000
H236        H  0.29451826  0.20002114  0.16581189     0.06500
H237        H  0.33332286  0.32300261  0.24654970     0.05500
H238        H  0.30176208  0.32973290  0.21414228    -0.00300
H239        H  0.32844046  0.29484746  0.20991151     0.01200
H240        H  0.21078283  0.24808762  0.33345310     0.04800
H241        H  0.23611402  0.21215710  0.32754660     0.06800
H242        H  0.20503962  0.22151485  0.29573236     0.07700
C243        C  0.36679759  0.39608004  0.99274174    -0.22000
C244        C  0.34573175  0.39043871  0.96395680     0.10000
C245        C  0.34970363  0.40800830  0.93165329     0.10400
C246        C  0.37489944  0.43107073  0.92899546    -0.16900
C247        C  0.39544610  0.43726028  0.95825687    -0.27300
C248        C  0.39167599  0.41919538  0.99036505     0.18700
C249        C  0.31841556  0.36774907  0.97030348     0.12700
C250        C  0.32706754  0.40290678  0.90050599    -0.11700
H251        H  0.37804900  0.44493044  0.90440504     0.13000
C252        C  0.41371161  0.42305177  0.02243344    -0.22500
H253        H  0.36354682  0.38247424  0.01749828     0.08600
C254        C  0.32065056  0.33420553  0.96222885     0.05000
C255        C  0.29744397  0.31282063  0.97691703    -0.19700
C256        C  0.27287176  0.32416551  0.00022520    -0.12000
C257        C  0.26957058  0.35794567  0.00640093     0.13700
C258        C  0.29225800  0.37928767  0.99108761    -0.22400
C259        C  0.34793708  0.32007349  0.93980648    -0.05500
H260        H  0.29993429  0.28688559  0.97220076     0.15200
C261        C  0.24339075  0.37221795  0.03031487    -0.15700
H262        H  0.29070824  0.40503824  0.99726867     0.09500
H263        H  0.42494803  0.39922046  0.02893033     0.07400
H264        H  0.39915195  0.43138453  0.04600491     0.08600
H265        H  0.43386810  0.44054191  0.01799004     0.07600
H266        H  0.30169719  0.40871315  0.90891997     0.02500
H267        H  0.32838309  0.37724173  0.89137746     0.03000
H268        H  0.33354078  0.41875048  0.87734222     0.06500
H269        H  0.33758524  0.30714096  0.91628955     0.05500
H270        H  0.36199258  0.30244443  0.95616055    -0.00300
H271        H  0.36506479  0.33882789  0.92960490     0.01200
H272        H  0.25478863  0.38384173  0.05405557     0.04800
H273        H  0.22556876  0.35384920  0.03991215     0.06800
H274        H  0.22972454  0.39104894  0.01524660     0.07700
C275        C  0.11703964  0.13794161  0.00412964    -0.22000
C276        C  0.12184717  0.16218004  0.97825935     0.10000
C277        C  0.10471569  0.16072816  0.94559037     0.10400
C278        C  0.08279044  0.13505086  0.93967777    -0.16900
C279        C  0.07767160  0.11063451  0.96564313    -0.27300
C280        C  0.09520714  0.11222365  0.99845300     0.18700
C281        C  0.14489609  0.18878838  0.98676725     0.12700
C282        C  0.10923176  0.18642886  0.91722970    -0.11700
H283        H  0.06953629  0.13410221  0.91459346     0.13000
C284        C  0.09052911  0.08777786  0.02831620    -0.22500
H285        H  0.13034199  0.13941840  0.02916661     0.08600
C286        C  0.13542615  0.21502849  0.00896904     0.05000
C287        C  0.15913643  0.23696716  0.02107031    -0.19700
C288        C  0.19206981  0.23330444  0.01138423    -0.12000
C289        C  0.20138297  0.20761470  0.98805158     0.13700
C290        C  0.17757024  0.18571403  0.97598483    -0.22400
C291        C  0.10036218  0.21960635  0.02018397    -0.05500
H292        H  0.15206099  0.25686005  0.03861166     0.15200
C293        C  0.23621397  0.20154443  0.97664569    -0.15700
H294        H  0.18473272  0.16536874  0.95914714     0.09500
H295        H  0.10488836  0.09416884  0.05253166     0.07400
H296        H  0.09881763  0.06338366  0.01930759     0.08600
H297        H  0.06445013  0.08685094  0.03650634     0.07600
H298        H  0.13514724  0.18711708  0.90843828     0.02500
H299        H  0.10204579  0.21045970  0.92834002     0.03000
H300        H  0.09403824  0.18159938  0.89320868     0.06500
H301        H  0.09708232  0.24159049  0.03721981     0.05500
H302        H  0.09185908  0.19820076  0.03580984    -0.00300
H303        H  0.08497893  0.22240423  0.99593682     0.01200
H304        H  0.24372148  0.17684129  0.98535021     0.04800
H305        H  0.25368085  0.21910739  0.98825503     0.06800
H306        H  0.23814821  0.20293370  0.94689492     0.07700
C307        C  0.46825043  0.99081127  0.67977722    -0.22000
C308        C  0.99075968  0.04533375  0.69422559     0.10000
C309        C  0.00426935  0.44340848  0.66560089     0.10400
C310        C  0.99990817  0.44436500  0.62817434    -0.16900
C311        C  0.99500055  0.05110183  0.61881470    -0.27300
C312        C  0.46314031  0.99176128  0.64255678     0.18700
C313        C  0.98780428  0.04179653  0.73368488     0.12700
C314        C  0.02386475  0.41632430  0.68202297    -0.11700
H315        H  0.01075972  0.42567504  0.61131226     0.13000
C316        C  0.43452942  0.01104133  0.62890516    -0.22500
H317        H  0.45146109  0.00336409  0.69770440     0.08600
C318        C  0.51381799  0.00082907  0.75129899     0.05000
C319        C  0.51719605  0.99991697  0.78875901    -0.19700
C320        C  0.50650308  0.97301632  0.80917800    -0.12000
C321        C  0.97833672  0.45072264  0.78636796     0.13700
C322        C  0.97518909  0.45025681  0.74874792    -0.22400
C323        C  0.52572466  0.03005810  0.73059669    -0.05500
H324        H  0.52819790  0.02057711  0.80208721     0.15200
C325        C  0.95503263  0.43058722  0.80865273    -0.15700
H326        H  0.95662922  0.43526905  0.73639641     0.09500
H327        H  0.43667052  0.03667820  0.63805599     0.07400
H328        H  0.42759936  0.54415539  0.62353965     0.08600
H329        H  0.43293125  0.01126008  0.59917901     0.07600
H330        H  0.00844925  0.40249798  0.70133675     0.02500
H331        H  0.05575018  0.05555943  0.71754065     0.03000
H332        H  0.03308915  0.39909159  0.66129557     0.06500
H333        H  0.53675428  0.04858277  0.74854936     0.05500
H334        H  0.50505723  0.04160372  0.71634797    -0.00300
H335        H  0.01176447  0.10603048  0.72502828     0.01200
H336        H  0.45670358  0.46706713  0.82096760     0.04800
H337        H  0.96856180  0.41147575  0.82339392     0.06800
H338        H  0.93665340  0.41812811  0.79171346     0.07700
C339        C  0.99481112  0.02813227  0.22472505    -0.22000
C340        C  0.48163286  0.49692064  0.20772788     0.10000
C341        C  0.45286935  0.48524385  0.22426738     0.10400
C342        C  0.45166408  0.48194158  0.26180902    -0.16900
C343        C  0.51730228  0.00737653  0.27668435    -0.27300
C344        C  0.99398252  0.02501197  0.26225689     0.18700
C345        C  0.51597646  0.99714495  0.16171637     0.12700
C346        C  0.42359919  0.47605412  0.20223797    -0.11700
H347        H  0.42963404  0.47296046  0.27467718     0.13000
C348        C  0.00306236  0.05434483  0.28438957    -0.22500
H349        H  0.00128351  0.05134190  0.21278994     0.08600
C350        C  0.50704845  0.02317792  0.13918931     0.05000
C351        C  0.50610170  0.01828238  0.10187813    -0.19700
C352        C  0.51425508  0.98807052  0.08667757    -0.12000
C353        C  0.05170507  0.47954674  0.10048278     0.13700
C354        C  0.05190427  0.48323826  0.13809641    -0.22400
C355        C  0.49845744  0.05600240  0.15458773    -0.05500
H356        H  0.49938316  0.03825898  0.08439522     0.15200
C357        C  0.08183124  0.46576150  0.08261343    -0.15700
H358        H  0.07336256  0.47649098  0.15323184     0.09500
H359        H  0.98511096  0.07411023  0.27976620     0.07400
H360        H  0.02761641  0.06302365  0.27606658     0.08600
H361        H  0.00401959  0.04927083  0.31359958     0.07600
H362        H  0.43029629  0.45636387  0.18310184     0.02500
H363        H  0.41488320  0.49744580  0.18689277     0.03000
H364        H  0.40316933  0.46722049  0.21941206     0.06500
H365        H  0.49192038  0.07364920  0.13320360     0.05500
H366        H  0.51959822  0.06593771  0.16949076    -0.00300
H367        H  0.47733660  0.05367808  0.17324343     0.01200
H368        H  0.09265907  0.48400917  0.06404848     0.04800
H369        H  0.07558064  0.44323937  0.06768777     0.06800
H370        H  0.10085627  0.45932627  0.10248579     0.07700
C371        C  0.28664315  0.29857700  0.72679190    -0.22000
C372        C  0.28467625  0.27065846  0.70532449     0.10000
C373        C  0.28488018  0.23966473  0.72150018     0.10400
C374        C  0.28639593  0.23726123  0.75903921    -0.16900
C375        C  0.28811355  0.26513840  0.78079060    -0.27300
C376        C  0.28887977  0.29626798  0.76435345     0.18700
C377        C  0.28385051  0.27417137  0.66576687     0.12700
C378        C  0.28318620  0.20916422  0.69910310    -0.11700
H379        H  0.28563821  0.21345951  0.77156097     0.13000
C380        C  0.29318834  0.32742404  0.78524265    -0.22500
H381        H  0.28709121  0.32230708  0.71406818     0.08600
C382        C  0.25437880  0.27841882  0.64721313     0.05000
C383        C  0.25479994  0.27932540  0.60946567    -0.19700
C384        C  0.28409201  0.27603723  0.58967105    -0.12000
C385        C  0.31386351  0.27269155  0.60883014     0.13700
C386        C  0.31316566  0.27181919  0.64656373    -0.22400
C387        C  0.22249586  0.28154167  0.66730952    -0.05500
H388        H  0.23192200  0.28211846  0.59542211     0.15200
C389        C  0.34665744  0.27018979  0.59034019    -0.15700
H390        H  0.33563243  0.26874816  0.66134865     0.09500
H391        H  0.27098162  0.34268389  0.78264543     0.07400
H392        H  0.31437001  0.34104947  0.77420099     0.08600
H393        H  0.29802470  0.32339329  0.81415403     0.07600
H394        H  0.30453279  0.20798381  0.68060497     0.02500
H395        H  0.26046047  0.20917950  0.68307994     0.03000
H396        H  0.28329170  0.18693341  0.71605399     0.06500
H397        H  0.20163661  0.28461563  0.64874047     0.05500
H398        H  0.22330535  0.30306924  0.68534653    -0.00300
H399        H  0.21810295  0.25939213  0.68368868     0.01200
H400        H  0.35076138  0.29179147  0.57297884     0.04800
H401        H  0.34796173  0.24756784  0.57407888     0.06800
H402        H  0.36696004  0.26921403  0.60991744     0.07700
C403        C  0.38126856  0.18558979  0.90038551    -0.22000
C404        C  0.36711434  0.15644232  0.91224889     0.10000
C405        C  0.33288490  0.15415709  0.91557269     0.10400
C406        C  0.31349851  0.18062182  0.90516541    -0.16900
C407        C  0.32760848  0.20912767  0.89130319    -0.27300
C408        C  0.36197671  0.21204417  0.88997487     0.18700
C409        C  0.38863458  0.12820163  0.91919146     0.12700
C410        C  0.31679762  0.12337548  0.92860485    -0.11700
H411        H  0.28715937  0.17848854  0.90619072     0.13000
C412        C  0.37906740  0.24262616  0.87780742    -0.22500
H413        H  0.40761375  0.18745218  0.89853718     0.08600
C414        C  0.40342246  0.11094915  0.89057126     0.05000
C415        C  0.42461181  0.08516216  0.89822281    -0.19700
C416        C  0.43099471  0.07575046  0.93379727    -0.12000
C417        C  0.41556339  0.09263646  0.96248313     0.13700
C418        C  0.39473882  0.11884805  0.95475623    -0.22400
C419        C  0.39651088  0.11944352  0.85192811    -0.05500
H420        H  0.43613499  0.07207019  0.87620121     0.15200
C421        C  0.42177916  0.08402089  0.00121897    -0.15700
H422        H  0.38332554  0.13232476  0.97652817     0.09500
H423        H  0.39371561  0.23743826  0.85320769     0.07400
H424        H  0.39562033  0.25115778  0.89933632     0.08600
H425        H  0.36202491  0.26279875  0.87190766     0.07600
H426        H  0.32465115  0.11797312  0.95647016     0.02500
H427        H  0.32371119  0.10280836  0.91074678     0.03000
H428        H  0.28979465  0.12548989  0.92875604     0.06500
H429        H  0.40931828  0.10282925  0.83293870     0.05500
H430        H  0.40477568  0.14459320  0.84608843    -0.00300
H431        H  0.36992931  0.11756898  0.84688563     0.01200
H432        H  0.40900492  0.10086144  0.01997626     0.04800
H433        H  0.44829591  0.08540799  0.00680352     0.06800
H434        H  0.41277048  0.05908595  0.00691310     0.07700
C435        C  0.20627696  0.33812134  0.91231101    -0.22000
C436        C  0.17784122  0.32090785  0.92084104     0.10000
C437        C  0.17791343  0.28665954  0.91982275     0.10400
C438        C  0.20619569  0.27029465  0.90833906    -0.16900
C439        C  0.23410743  0.28770491  0.89787665    -0.27300
C440        C  0.23446917  0.32195192  0.90094149     0.18700
C441        C  0.14785904  0.33982891  0.92771373     0.12700
C442        C  0.14801609  0.26760997  0.93007702    -0.11700
H443        H  0.20600247  0.24403149  0.90574703     0.13000
C444        C  0.26384593  0.34222408  0.89146391    -0.22500
H445        H  0.20612497  0.36449208  0.91341402     0.08600
C446        C  0.14315796  0.35697514  0.96008951     0.05000
C447        C  0.11756454  0.37946179  0.96277727    -0.19700
C448        C  0.09635748  0.38495695  0.93382318    -0.12000
C449        C  0.10012512  0.36618252  0.90197062     0.13700
C450        C  0.12598112  0.34395922  0.89939752    -0.22400
C451        C  0.16554245  0.35177504  0.99144128    -0.05500
H452        H  0.11446828  0.39323530  0.98744814     0.15200
C453        C  0.07829711  0.37040433  0.86983081    -0.15700
H454        H  0.13003259  0.33062319  0.87456345     0.09500
H455        H  0.27003131  0.35778461  0.91478825     0.07400
H456        H  0.25821056  0.35807227  0.86816593     0.08600
H457        H  0.28562494  0.32739827  0.88475286     0.07600
H458        H  0.12784447  0.27322607  0.91133690     0.02500
H459        H  0.14037075  0.27402430  0.95787910     0.03000
H460        H  0.15283790  0.24111438  0.92905993     0.06500
H461        H  0.15863011  0.36712860  0.01487869     0.05500
H462        H  0.19083530  0.35800166  0.98337098    -0.00300
H463        H  0.16470331  0.32587921  0.99986072     0.01200
H464        H  0.08597973  0.35471734  0.84693889     0.04800
H465        H  0.07905973  0.39603413  0.86049162     0.06800
H466        H  0.05290360  0.36353021  0.87702566     0.07700
C467        C  0.24759798  0.73755617  0.87740965     0.03600
C468        C  0.24591383  0.73391124  0.83994519    -0.12500
C469        C  0.22410323  0.75266105  0.81981186     0.01100
C470        C  0.20315674  0.77438158  0.83773664    -0.11000
C471        C  0.20488498  0.77830096  0.87518377     0.03600
C472        C  0.22700689  0.75973277  0.89506330    -0.10500
H473        H  0.26236049  0.71722338  0.82634964     0.09200
H474        H  0.18622451  0.78901969  0.82241644     0.06700
H475        H  0.22887853  0.76320069  0.92387939     0.06600
Zn476      Zn  0.50732504  0.94048701  0.92120316     1.49700
Zn477      Zn  0.44877239  0.52507220  0.98544521     1.49400
Zn478      Zn  0.05481131  0.47752664  0.96842532     1.49100
Zn479      Zn  0.49143317  0.56192730  0.92613415     1.49500
O480        O  0.48743011  0.52218327  0.95449073    -1.83600
O481        O  0.46736943  0.91563898  0.93733245    -0.74300
O482        O  0.46066983  0.52250533  0.03794317    -0.74100
O483        O  0.05389202  0.97845467  0.96107270    -0.73600
O484        O  0.44391062  0.94921719  0.97631765    -0.74300
O485        O  0.02318608  0.95798006  0.91786826    -0.73900
O486        O  0.04601476  0.47930172  0.02184015    -0.74500
O487        O  0.05853110  0.54322422  0.91492829    -0.73800
O488        O  0.42259347  0.56582222  0.97569731    -0.74600
O489        O  0.08431716  0.51579859  0.95771017    -0.74000
O490        O  0.45183953  0.59023411  0.93325654    -0.74500
O491        O  0.49458336  0.55218234  0.87284987    -0.74400
O492        O  0.50338891  0.94999645  0.86842872    -0.74200
C493        C  0.44434567  0.92230585  0.95934087     0.77600
C494        C  0.48677557  0.51388168  0.05363226     0.78100
C495        C  0.04881241  0.95712665  0.93687048     0.77100
C496        C  0.08220696  0.54007535  0.93663015     0.77500
C497        C  0.42666777  0.58908929  0.95353119     0.78600
C498        C  0.48957016  0.52652306  0.85441478     0.77600
C499        C  0.24102233  0.70646180  0.01917147     0.03600
C500        C  0.23584123  0.70933775  0.05654002    -0.12500
C501        C  0.25137804  0.73390563  0.07630927     0.01100
C502        C  0.27227264  0.75557651  0.05848579    -0.11000
C503        C  0.27732801  0.75316787  0.02127147     0.03600
C504        C  0.26164589  0.72872961  0.00163679    -0.10500
H505        H  0.21995312  0.69225222  0.07025821     0.09200
H506        H  0.28468373  0.77436167  0.07360916     0.06700
H507        H  0.26567211  0.72691235  0.97295597     0.06600
C508        C  0.99368085  0.95902693  0.37095612     0.03600
C509        C  0.99936112  0.96565440  0.33439958    -0.12500
C510        C  0.02928500  0.51431799  0.31071220     0.01100
C511        C  0.45415061  0.50398068  0.34264274    -0.11000
C512        C  0.45102838  0.49929846  0.37987034     0.03600
C513        C  0.97088657  0.97766469  0.39023686    -0.10500
H514        H  0.01737250  0.95167413  0.31953052     0.09200
H515        H  0.43965998  0.52245097  0.32944416     0.06700
H516        H  0.02846781  0.52634617  0.41463761     0.06600
Zn517      Zn  0.22581513  0.76952245  0.41751137     1.49700
Zn518      Zn  0.26102219  0.72749545  0.47793613     1.49400
Zn519      Zn  0.18424849  0.73419828  0.47917983     1.49100
Zn520      Zn  0.21971593  0.69282040  0.41645579     1.49500
O521        O  0.22259498  0.73092239  0.44773693    -1.83600
O522        O  0.26430876  0.79711107  0.43104285    -0.74300
O523        O  0.24942925  0.72749743  0.53063162    -0.74100
O524        O  0.15622154  0.77298370  0.46606947    -0.73600
O525        O  0.28981376  0.76610472  0.47046511    -0.74300
O526        O  0.18560325  0.79659822  0.42325323    -0.73900
O527        O  0.19653401  0.73741145  0.53184996    -0.74500
O528        O  0.17978202  0.66616456  0.42864192    -0.73800
O529        O  0.28706786  0.68726331  0.46702996    -0.74600
O530        O  0.15757170  0.69355555  0.47429373    -0.74000
O531        O  0.25845526  0.66350408  0.42409415    -0.74500
O532        O  0.22041945  0.70529428  0.36364997    -0.74400
O533        O  0.23002871  0.75819540  0.36484287    -0.74200
C534        C  0.28801198  0.79220518  0.45219742     0.77600
C535        C  0.22333605  0.73294669  0.54829051     0.78100
C536        C  0.16024632  0.79568298  0.44309733     0.77100
C537        C  0.15842014  0.66892468  0.45353768     0.77500
C538        C  0.28302102  0.66407996  0.44486584     0.78600
C539        C  0.22638044  0.73185849  0.34724971     0.77600
C540        C  0.45456686  0.95603826  0.52605317     0.03600
C541        C  0.00896261  0.04329747  0.50463637    -0.12500
C542        C  0.99977036  0.49396591  0.51584532     0.01100
C543        C  0.00165852  0.49170532  0.55338224    -0.11000
C544        C  0.98080185  0.47089274  0.57242424     0.03600
C545        C  0.45805993  0.95567014  0.56361858    -0.10500
H546        H  0.97539413  0.47693239  0.46814291     0.09200
H547        H  0.01902153  0.50657096  0.56784901     0.06700
H548        H  0.44257448  0.94014326  0.57998792     0.06600
C549        C  0.03337368  0.57274809  0.47870042    -0.22000
C550        C  0.06625732  0.56445878  0.47410698     0.10000
C551        C  0.07644657  0.53210622  0.47958919     0.10400
C552        C  0.05351669  0.50876703  0.49058104    -0.16900
C553        C  0.02092028  0.51742592  0.49700003    -0.27300
C554        C  0.01056883  0.54968409  0.49054767     0.18700
C555        C  0.09008830  0.59081025  0.46784408     0.12700
C556        C  0.11170701  0.52265639  0.47537136    -0.11700
H557        H  0.06135323  0.48407559  0.49606442     0.13000
C558        C  0.97621671  0.56103364  0.49789176    -0.22500
H559        H  0.02578104  0.59773462  0.47469977     0.08600
C560        C  0.09789784  0.60207713  0.43305985     0.05000
C561        C  0.12026965  0.62768737  0.42902826    -0.19700
C562        C  0.13458091  0.64243594  0.45913944    -0.12000
C563        C  0.12692099  0.63071206  0.49403872     0.13700
C564        C  0.10470173  0.60505813  0.49785804    -0.22400
C565        C  0.08259966  0.58703756  0.40041469    -0.05500
H566        H  0.12637601  0.63644759  0.40232376     0.15200
C567        C  0.14288002  0.64420574  0.52730708    -0.15700
H568        H  0.09863016  0.59595381  0.52444875     0.09500
H569        H  0.96604313  0.57198053  0.47319753     0.07400
H570        H  0.51914192  0.62821951  0.47514440     0.08600
H571        H  0.50680019  0.58706057  0.48220246     0.07600
H572        H  0.12670547  0.53603351  0.49523817     0.02500
H573        H  0.12041642  0.52871291  0.44788539     0.03000
H574        H  0.11522477  0.49622632  0.47973900     0.06500
H575        H  0.09104581  0.59883419  0.37514937     0.05500
H576        H  0.05575263  0.58960903  0.40229242    -0.00300
H577        H  0.08894944  0.56085618  0.39905715     0.01200
H578        H  0.13555330  0.63057668  0.55185579     0.04800
H579        H  0.13564225  0.66994169  0.53139884     0.06800
H580        H  0.16982000  0.64249408  0.52458850     0.07700
C581        C  0.37437618  0.91551258  0.50363242    -0.22000
C582        C  0.38520881  0.89017568  0.48141128     0.10000
C583        C  0.41827389  0.88836089  0.47102553     0.10400
C584        C  0.44031136  0.91106626  0.48496873    -0.16900
C585        C  0.42978684  0.93543727  0.50884124    -0.27300
C586        C  0.39620986  0.93850585  0.51717486     0.18700
C587        C  0.36191172  0.86426173  0.47228277     0.12700
C588        C  0.43026507  0.86217449  0.44584557    -0.11700
H589        H  0.46600469  0.90915195  0.47822376     0.13000
C590        C  0.38252527  0.96576718  0.53986889    -0.22500
H591        H  0.34878010  0.91694711  0.51102823     0.08600
C592        C  0.35829368  0.83702729  0.49482106     0.05000
C593        C  0.33452250  0.81384776  0.48687238    -0.19700
C594        C  0.31369083  0.81736580  0.45717445    -0.12000
C595        C  0.31768028  0.84485181  0.43431980     0.13700
C596        C  0.34191092  0.86788519  0.44225233    -0.22400
C597        C  0.37903774  0.83281323  0.52782971    -0.05500
H598        H  0.33178408  0.79320759  0.50472058     0.15200
C599        C  0.29686868  0.85039047  0.40162501    -0.15700
H600        H  0.34497691  0.88915746  0.42534259     0.09500
H601        H  0.40857208  0.51928706  0.53175502     0.07400
H602        H  0.36334527  0.97870964  0.52455877     0.08600
H603        H  0.44366277  0.54260291  0.51804195     0.07600
H604        H  0.41730918  0.86407677  0.41982358     0.02500
H605        H  0.42559462  0.83782230  0.45765535     0.03000
H606        H  0.45684948  0.86436392  0.44044362     0.06500
H607        H  0.37286278  0.81016343  0.54265741     0.05500
H608        H  0.37523922  0.85366939  0.54636992    -0.00300
H609        H  0.40517204  0.83159124  0.52002350     0.01200
H610        H  0.27105888  0.85408644  0.40985739     0.04800
H611        H  0.29889150  0.82926826  0.38312760     0.06800
H612        H  0.30457647  0.87239040  0.38644643     0.07700
C613        C  0.11460225  0.87270312  0.41559030    -0.22000
C614        C  0.08314006  0.86563783  0.42798386     0.10000
C615        C  0.07723758  0.83663527  0.44705040     0.10400
C616        C  0.10301693  0.81470698  0.45235170    -0.16900
C617        C  0.13458024  0.82102541  0.43876889    -0.27300
C618        C  0.14048441  0.85101837  0.42077030     0.18700
C619        C  0.05662844  0.88811330  0.41792767     0.12700
C620        C  0.04379736  0.82893894  0.46178520    -0.11700
H621        H  0.09819683  0.79214638  0.46646104     0.13000
C622        C  0.17374465  0.86089579  0.40694917    -0.22500
H623        H  0.11870815  0.89515165  0.40095542     0.08600
C624        C  0.05388902  0.91940850  0.43322759     0.05000
C625        C  0.03188266  0.94171315  0.41843381    -0.19700
C626        C  0.01247004  0.93319203  0.38896009    -0.12000
C627        C  0.01349475  0.90098345  0.37551664     0.13700
C628        C  0.03604567  0.87905275  0.38976431    -0.22400
C629        C  0.07422818  0.92923218  0.46499315    -0.05500
H630        H  0.03063136  0.96623795  0.42908460     0.15200
C631        C  0.99112961  0.88884673  0.34641850    -0.15700
H632        H  0.03806177  0.85485213  0.37831609     0.09500
H633        H  0.17377458  0.88603756  0.39602544     0.07400
H634        H  0.18156626  0.84455451  0.38473039     0.08600
H635        H  0.19167228  0.86012881  0.42915735     0.07600
H636        H  0.02606841  0.82699101  0.43948892     0.02500
H637        H  0.03585864  0.84856325  0.48044141     0.03000
H638        H  0.04351915  0.80559082  0.47677923     0.06500
H639        H  0.06830454  0.95425208  0.47424669     0.05500
H640        H  0.10049161  0.92848770  0.45774401    -0.00300
H641        H  0.06954954  0.91227018  0.48770062     0.01200
H642        H  0.00571116  0.88226288  0.32217266     0.04800
H643        H  0.50698608  0.95267008  0.41352760     0.06800
H644        H  0.97797579  0.86692059  0.35613450     0.07700
C645        C  0.35144487  0.60360419  0.46536564    -0.22000
C646        C  0.35453998  0.58791802  0.43205419     0.10000
C647        C  0.33359464  0.59654607  0.40365666     0.10400
C648        C  0.31033500  0.62100987  0.40908846    -0.16900
C649        C  0.30762794  0.63759648  0.44204967    -0.27300
C650        C  0.32844842  0.62855517  0.47075271     0.18700
C651        C  0.38095789  0.56383572  0.42628802     0.12700
C652        C  0.33638501  0.58071371  0.36713129    -0.11700
H653        H  0.29465544  0.62776052  0.38697008     0.13000
C654        C  0.32651132  0.64454581  0.50722890    -0.22500
H655        H  0.36751374  0.59660298  0.48704564     0.08600
C656        C  0.41370036  0.57379668  0.42170840     0.05000
C657        C  0.43674949  0.55136360  0.40881115    -0.19700
C658        C  0.42768757  0.51942906  0.40031195    -0.12000
C659        C  0.39547181  0.50884919  0.40728644     0.13700
C660        C  0.37258395  0.53115816  0.42070998    -0.22400
C661        C  0.42403005  0.60837632  0.42871058    -0.05500
H662        H  0.46160041  0.55915530  0.40363232     0.18400
C663        C  0.38398283  0.47485436  0.39901975    -0.15700
H664        H  0.34751186  0.52349774  0.42477865     0.09500
H665        H  0.33357098  0.67054040  0.50511152     0.07400
H666        H  0.34330749  0.63298816  0.52671885     0.08600
H667        H  0.30136156  0.64249228  0.51824794     0.07600
H668        H  0.33090331  0.55435427  0.36923175     0.02500
H669        H  0.36142981  0.58402539  0.35622156     0.03000
H670        H  0.31901453  0.59138237  0.34763367     0.06500
H671        H  0.45035689  0.61210935  0.42280393     0.05500
H672        H  0.41976994  0.61453789  0.45744085    -0.00300
H673        H  0.40986410  0.62522591  0.41153446     0.01200
H674        H  0.37476403  0.46321481  0.42403800     0.04800
H675        H  0.40344139  0.45920035  0.38759707     0.06800
H676        H  0.36388410  0.47590175  0.37921984     0.07700
C677        C  0.21441208  0.74470250  0.16993955    -0.22000
C678        C  0.24157696  0.73865240  0.19162826     0.10000
C679        C  0.27214250  0.73235554  0.17533726     0.10400
C680        C  0.27461104  0.73114356  0.13767046    -0.16900
C681        C  0.24724122  0.73613149  0.11591501    -0.27300
C682        C  0.21692296  0.74377813  0.13220901     0.18700
C683        C  0.23720379  0.73746446  0.23129865     0.12700
C684        C  0.30216024  0.72715781  0.19771464    -0.11700
H685        H  0.29796820  0.72590716  0.12506019     0.13000
C686        C  0.18747515  0.75182091  0.10992815    -0.22500
H687        H  0.19110029  0.74987697  0.18265205     0.08600
C688        C  0.23421293  0.76586941  0.25226674     0.05000
C689        C  0.23029687  0.76314570  0.28973790    -0.19700
C690        C  0.22946364  0.73260851  0.30706463    -0.12000
C691        C  0.23264499  0.70408270  0.28559354     0.13700
C692        C  0.23625034  0.70703300  0.24810523    -0.22400
C693        C  0.23576882  0.79904378  0.23515782    -0.05500
H694        H  0.22801872  0.78518815  0.30554319     0.15200
C695        C  0.23300645  0.67034193  0.30147542    -0.15700
H696        H  0.23862036  0.68541099  0.23164138     0.09500
H697        H  0.16626327  0.75875699  0.12703390     0.07400
H698        H  0.18025030  0.73050081  0.09357068     0.08600
H699        H  0.19315751  0.77258405  0.09183370     0.07600
H700        H  0.29897295  0.70545360  0.21508322     0.02500
H701        H  0.30641601  0.74884556  0.21488393     0.03000
H702        H  0.32419748  0.72329291  0.18068296     0.06500
H703        H  0.23365866  0.81878486  0.25547296     0.05500
H704        H  0.21553705  0.80189084  0.21577744    -0.00300
H705        H  0.25939929  0.80199162  0.22074514     0.01200
H706        H  0.20931702  0.66515683  0.31490737     0.04800
H707        H  0.25323800  0.66814668  0.32100805     0.06800
H708        H  0.23678621  0.65135963  0.28058025     0.07700
C709        C  0.37548406  0.87189712  0.00136962    -0.22000
C710        C  0.37033677  0.84871396  0.97443191     0.10000
C711        C  0.38830830  0.85047302  0.94205706     0.10400
C712        C  0.41193807  0.87492876  0.93783562    -0.16900
C713        C  0.41777668  0.89803924  0.96507060    -0.27300
C714        C  0.39885505  0.89659285  0.99723454     0.18700
C715        C  0.34672380  0.82224176  0.98168950     0.12700
C716        C  0.38243712  0.82661173  0.91202610    -0.11700
H717        H  0.42590854  0.87598266  0.91299305     0.13000
C718        C  0.40359707  0.92007704  0.02795006    -0.22500
H719        H  0.36139245  0.87025625  0.02611418     0.08600
C720        C  0.35692764  0.79133039  0.99394473     0.05000
C721        C  0.33341954  0.76850760  0.00460233    -0.19700
C722        C  0.30010924  0.77589465  0.00362424    -0.12000
C723        C  0.28977544  0.80620895  0.98992992     0.13700
C724        C  0.31329597  0.82912235  0.97927004    -0.22400
C725        C  0.39230175  0.78201077  0.99749495    -0.05500
H726        H  0.34118514  0.74518562  0.01514590     0.15200
C727        C  0.25430570  0.81529417  0.98682496    -0.15700
H728        H  0.30553774  0.85278045  0.96973508     0.09500
H729        H  0.38772359  0.91409729  0.05137705     0.07400
H730        H  0.39725028  0.94510592  0.01930769     0.08600
H731        H  0.42926865  0.91923584  0.03715535     0.07600
H732        H  0.35672310  0.82842127  0.90316420     0.02500
H733        H  0.38727761  0.80145254  0.92136886     0.03000
H734        H  0.39847238  0.83147534  0.88843007     0.06500
H735        H  0.39742428  0.76037649  0.98045419     0.05500
H736        H  0.39749727  0.77584360  0.02595284    -0.00300
H737        H  0.40927971  0.80162346  0.98923560     0.01200
H738        H  0.24920874  0.83714023  0.00352702     0.04800
H739        H  0.23762898  0.79559900  0.99565970     0.06800
H740        H  0.24870179  0.82093831  0.95832777     0.07700
C741        C  0.12363774  0.61833421  0.96454923    -0.22000
C742        C  0.15579930  0.61286950  0.95300654     0.10000
C743        C  0.16321873  0.58428108  0.93342011     0.10400
C744        C  0.13851233  0.56115843  0.92732509    -0.16900
C745        C  0.10651788  0.56638065  0.93972917    -0.27300
C746        C  0.09886933  0.59566152  0.95796224     0.18700
C747        C  0.18138366  0.63604080  0.96501795     0.12700
C748        C  0.19702490  0.57833668  0.91872897    -0.11700
H749        H  0.14424824  0.53873715  0.91326432     0.13000
C750        C  0.06519053  0.60330311  0.97225453    -0.22500
H751        H  0.11798912  0.64007314  0.97992736     0.08600
C752        C  0.18214020  0.66874252  0.95333499     0.05000
C753        C  0.20308378  0.69091288  0.97031750    -0.19700
C754        C  0.22357736  0.68107724  0.99838695    -0.12000
C755        C  0.22492865  0.64773034  0.00771292     0.13700
C756        C  0.20327326  0.62584973  0.99154117    -0.22400
C757        C  0.16083368  0.68031927  0.92311161    -0.05500
H758        H  0.20254582  0.71632040  0.96259358     0.15200
C759        C  0.24907548  0.63431438  0.03422789    -0.15700
H760        H  0.20300619  0.60068239  0.00029110     0.09500
H761        H  0.05636274  0.62623808  0.95992730     0.07400
H762        H  0.06618510  0.60655593  0.00187373     0.08600
H763        H  0.04704900  0.58406222  0.96655953     0.07600
H764        H  0.21479547  0.57660732  0.94097329     0.02500
H765        H  0.20411630  0.59866955  0.90064218     0.03000
H766        H  0.19834791  0.55536882  0.90305067     0.06500
H767        H  0.16541541  0.70629265  0.91658017     0.05500
H768        H  0.13472734  0.67779072  0.93059133    -0.00300
H769        H  0.16595275  0.66569976  0.89859522     0.01200
H770        H  0.23587397  0.62416629  0.05786213     0.04800
H771        H  0.26674086  0.65276573  0.04366912     0.06800
H772        H  0.26342488  0.61458220  0.02119878     0.07700
C773        C  0.47459950  0.54709505  0.67802014    -0.22000
C774        C  0.99068475  0.46827033  0.68720306     0.10000
C775        C  0.02123765  0.04226624  0.67677182     0.10400
C776        C  0.02301321  0.04517807  0.63926798    -0.16900
C777        C  0.98237377  0.46967538  0.61204447    -0.27300
C778        C  0.47739564  0.54907808  0.64043359     0.18700
C779        C  0.99551288  0.46908980  0.72666436     0.12700
C780        C  0.05182561  0.03573057  0.69775501    -0.11700
H781        H  0.04627532  0.04191912  0.62570310     0.13000
C782        C  0.44834041  0.56119631  0.61977117    -0.22500
H783        H  0.45174912  0.55354015  0.69105200     0.08600
C784        C  0.50045359  0.56224028  0.76079696     0.05000
C785        C  0.49765097  0.55869910  0.79821511    -0.19700
C786        C  0.49123275  0.52825464  0.81422895    -0.12000
C787        C  0.98583947  0.00558382  0.78570631     0.13700
C788        C  0.98648544  0.01051534  0.74833342    -0.22400
C789        C  0.50785967  0.59516993  0.74498600    -0.05500
H790        H  0.50079030  0.58000203  0.81499323     0.15200
C791        C  0.98525671  0.97098034  0.79920489    -0.15700
H792        H  0.98651229  0.98980579  0.73025780     0.09500
H793        H  0.44112669  0.58554146  0.63006854     0.07400
H794        H  0.41155230  0.00061489  0.63985003     0.08600
H795        H  0.45324150  0.56376244  0.59056823     0.07600
H796        H  0.04954850  0.01223634  0.71225445     0.02500
H797        H  0.04513191  0.42660865  0.69642003     0.03000
H798        H  0.07365270  0.03435256  0.67995053     0.06500
H799        H  0.51036312  0.61406915  0.76614282     0.05500
H800        H  0.48785241  0.60261435  0.72681656    -0.00300
H801        H  0.05614449  0.49284733  0.70062231     0.01200
H802        H  0.46081973  0.92269978  0.82969483     0.04800
H803        H  0.00694587  0.96629326  0.81610663     0.06800
H804        H  0.98576951  0.95308577  0.77680589     0.07700
C805        C  0.03659648  0.52990871  0.21005280    -0.22000
C806        C  0.51589377  0.00061559  0.20129662     0.10000
C807        C  0.48852020  0.99149395  0.22213472     0.10400
C808        C  0.48951918  0.99499849  0.25964360    -0.16900
C809        C  0.47870627  0.48965910  0.28307055    -0.27300
C810        C  0.03847442  0.53522892  0.24726129     0.18700
C811        C  0.48365593  0.50182573  0.16833971     0.12700
C812        C  0.45833441  0.97805769  0.20471684    -0.11700
H813        H  0.46871451  0.98763000  0.27584048     0.13000
C814        C  0.05068843  0.56786656  0.25986970    -0.22500
H815        H  0.04304373  0.54935563  0.19162730     0.08600
C816        C  0.47387518  0.53134818  0.15242078     0.05000
C817        C  0.47498215  0.53447199  0.11483852    -0.19700
C818        C  0.48609654  0.50890139  0.09292566    -0.12000
C819        C  0.01519427  0.99490735  0.10540843     0.13700
C820        C  0.01380579  0.99229735  0.14299407    -0.22400
C821        C  0.46245850  0.55954274  0.17515417    -0.05500
H822        H  0.46746519  0.55711349  0.10247338     0.15200
C823        C  0.04222118  0.97726933  0.08571867    -0.15700
H824        H  0.03243879  0.97871118  0.15706674     0.09500
H825        H  0.03363833  0.58720605  0.25105511     0.07400
H826        H  0.07509422  0.57260592  0.24783049     0.08600
H827        H  0.05330357  0.56946950  0.28944322     0.07600
H828        H  0.46441310  0.95535781  0.18991713     0.02500
H829        H  0.44835642  0.99615427  0.18556646     0.03000
H830        H  0.43907461  0.97232135  0.22487555     0.06500
H831        H  0.45583863  0.58088710  0.15844088     0.05500
H832        H  0.48217199  0.56701103  0.19372021    -0.00300
H833        H  0.44067296  0.55238769  0.19116488     0.01200
H834        H  0.05839047  0.99497321  0.07187046     0.04800
H835        H  0.03170377  0.96004063  0.06590011     0.06800
H836        H  0.05765144  0.96292067  0.10431332     0.07700
C837        C  0.22840378  0.77258536  0.71966979    -0.22000
C838        C  0.22181672  0.74211741  0.70450211     0.10000
C839        C  0.21655312  0.71508243  0.72713600     0.10400
C840        C  0.21733778  0.71930274  0.76462979    -0.16900
C841        C  0.22375189  0.74986637  0.77998959    -0.27300
C842        C  0.23001406  0.77676656  0.75709136     0.18700
C843        C  0.22171421  0.73897472  0.66476174     0.12700
C844        C  0.21034372  0.68180761  0.71166933    -0.11700
H845        H  0.21289025  0.69866447  0.78209758     0.13000
C846        C  0.23984843  0.80983991  0.77085320    -0.22500
H847        H  0.23306167  0.79313172  0.70209650     0.08600
C848        C  0.19312249  0.74365367  0.64471768     0.05000
C849        C  0.19447045  0.74119364  0.60705042    -0.19700
C850        C  0.22388251  0.73440183  0.58859227    -0.12000
C851        C  0.25267385  0.72961656  0.60920847     0.13700
C852        C  0.25102075  0.73197871  0.64691841    -0.22400
C853        C  0.16124305  0.75154720  0.66314203    -0.05500
H854        H  0.17225928  0.74490881  0.59199522     0.15200
C855        C  0.28540467  0.72214076  0.59231388    -0.15700
H856        H  0.27285444  0.72852896  0.66276903     0.09500
H857        H  0.22096372  0.82798708  0.76361084     0.07400
H858        H  0.26336706  0.81707262  0.75820200     0.08600
H859        H  0.24344974  0.81060065  0.80030569     0.07600
H860        H  0.23146568  0.67421973  0.69478110     0.02500
H861        H  0.18811313  0.68227711  0.69485942     0.03000
H862        H  0.20677125  0.66331177  0.73309491     0.06500
H863        H  0.14115277  0.75452351  0.64355321     0.05500
H864        H  0.16362731  0.77457579  0.67850036    -0.00300
H865        H  0.15445267  0.73166349  0.68193264     0.01200
H866        H  0.29306155  0.74244185  0.57448092     0.04800
H867        H  0.28407486  0.69908724  0.57681841     0.06800
H868        H  0.30472382  0.71907147  0.61281649     0.07700
C869        C  0.32706270  0.71391055  0.92163401    -0.22000
C870        C  0.32223465  0.68044221  0.92650365     0.10000
C871        C  0.29155625  0.66659711  0.91867698     0.10400
C872        C  0.26695178  0.68630267  0.90434535    -0.16900
C873        C  0.27249661  0.71934316  0.89741862    -0.27300
C874        C  0.30275832  0.73347502  0.90654936     0.18700
C875        C  0.35070216  0.65966367  0.93497734     0.12700
C876        C  0.28524409  0.63080285  0.92382622    -0.11700
H877        H  0.24368740  0.67567724  0.89722421     0.13000
C878        C  0.31087978  0.76855855  0.89900183    -0.22500
H879        H  0.35059914  0.72447141  0.92777751     0.08600
C880        C  0.37461997  0.65297045  0.90851424     0.05000
C881        C  0.39952163  0.63077339  0.91608217    -0.19700
C882        C  0.40107718  0.61453782  0.94932535    -0.12000
C883        C  0.37762134  0.62223163  0.97636983     0.13700
C884        C  0.35282632  0.64484128  0.96879759    -0.22400
C885        C  0.37324070  0.66826764  0.87167957    -0.05500
H886        H  0.41727467  0.62524159  0.89520851     0.15200
C887        C  0.37847985  0.60714614  0.01328374    -0.15700
H888        H  0.33448973  0.65044987  0.98903537     0.09500
H889        H  0.33191414  0.76981332  0.88008508     0.07400
H890        H  0.31769893  0.78075953  0.92439093     0.08600
H891        H  0.29043636  0.78231710  0.88705657     0.07600
H892        H  0.28793270  0.62433605  0.95260536     0.02500
H893        H  0.30284057  0.61642122  0.90742891     0.03000
H894        H  0.26022074  0.62396973  0.91552221     0.06500
H895        H  0.39319794  0.65940703  0.85383315     0.05500
H896        H  0.37571122  0.69506833  0.87392224    -0.00300
H897        H  0.34967898  0.66229926  0.85875994     0.01200
H898        H  0.35960504  0.61771632  0.03142099     0.04800
H899        H  0.40264475  0.61146275  0.02568122     0.06800
H900        H  0.37366253  0.58065025  0.01148308     0.07700
C901        C  0.17350403  0.86077909  0.90450063    -0.22000
C902        C  0.14206658  0.85274037  0.91648836     0.10000
C903        C  0.13248676  0.81979073  0.91814790     0.10400
C904        C  0.15427858  0.79558933  0.90639125    -0.16900
C905        C  0.18513972  0.80381183  0.89271824    -0.27300
C906        C  0.19522565  0.83669723  0.89256102     0.18700
C907        C  0.11841746  0.87938476  0.92270659     0.12700
C908        C  0.09891709  0.81035570  0.93109300    -0.11700
H909        H  0.14674771  0.77031485  0.90641156     0.13000
C910        C  0.22831744  0.84727341  0.87904039    -0.22500
H911        H  0.18069056  0.88612828  0.90319079     0.08600
C912        C  0.11448763  0.89451885  0.95646748     0.05000
C913        C  0.09177665  0.91994143  0.96028004    -0.19700
C914        C  0.07292500  0.93056206  0.93102253    -0.12000
C915        C  0.07758903  0.91557027  0.89692727     0.13700
C916        C  0.10022762  0.89019078  0.89337990    -0.22400
C917        C  0.13432706  0.88387221  0.98827263    -0.05500
H918        H  0.08849481  0.93133263  0.98638369     0.15200
C919        C  0.05975068  0.92662118  0.86374940    -0.15700
H920        H  0.10390638  0.87862146  0.86743463     0.09500
H921        H  0.24117980  0.86062803  0.90067451     0.07400
H922        H  0.22535669  0.86367523  0.85556856     0.08600
H923        H  0.24402698  0.82664569  0.87066893     0.07600
H924        H  0.08021709  0.82156910  0.91359991     0.02500
H925        H  0.09516645  0.81889910  0.95915209     0.03000
H926        H  0.09537630  0.78357663  0.93061176     0.06500
H927        H  0.12829930  0.89825101  0.01274520     0.05500
H928        H  0.16067473  0.88709158  0.98222199    -0.00300
H929        H  0.12951220  0.85785097  0.99420010     0.01200
H930        H  0.06848027  0.91376812  0.83921603     0.04800
H931        H  0.06370040  0.95307726  0.85950744     0.06800
H932        H  0.03330927  0.92146281  0.86653539     0.07700
C933        C  0.74682073  0.23862688  0.87863536     0.03600
C934        C  0.74450891  0.23423134  0.84130671    -0.12500
C935        C  0.72316455  0.25334794  0.82100996     0.01100
C936        C  0.70348461  0.27645127  0.83858920    -0.11000
C937        C  0.70561721  0.28078736  0.87598289     0.03600
C938        C  0.72720871  0.26176894  0.89600095    -0.10500
H939        H  0.75993006  0.21645323  0.82794211     0.09200
H940        H  0.68682549  0.29130158  0.82314464     0.06700
H941        H  0.72910258  0.26527819  0.92482527     0.06600
Zn942      Zn  0.00698556  0.43981481  0.91463705     1.49700
Zn943      Zn  0.94988538  0.02444092  0.98055938     1.49400
Zn944      Zn  0.55161938  0.97705212  0.97804801     1.49100
Zn945      Zn  0.99054199  0.06404275  0.92169687     1.49500
O946        O  0.98792109  0.02334688  0.94854867    -1.83600
O947        O  0.96733992  0.41535495  0.93265787    -0.74300
O948        O  0.96317936  0.02360670  0.03241853    -0.74100
O949        O  0.55305113  0.47726547  0.96822302    -0.73600
O950        O  0.94671534  0.44829191  0.97414592    -0.74300
O951        O  0.52144611  0.45555701  0.92653377    -0.73900
O952        O  0.53951351  0.97621554  0.03064008    -0.74500
O953        O  0.55850576  0.04356929  0.92550391    -0.73800
O954        O  0.92123697  0.06362650  0.97125202    -0.74600
O955        O  0.57974492  0.01682394  0.97179713    -0.74000
O956        O  0.94990523  0.09057606  0.93009586    -0.74500
O957        O  0.99254483  0.05542085  0.86813466    -0.74400
O958        O  0.00164564  0.44860241  0.86164755    -0.74200
C959        C  0.94593389  0.42164448  0.95668457     0.77600
C960        C  0.99001585  0.01646964  0.04750726     0.78100
C961        C  0.54750361  0.45534319  0.94480249     0.77100
C962        C  0.57971222  0.04081330  0.95016849     0.77500
C963        C  0.92460713  0.08765243  0.94994642     0.78600
C964        C  0.98679261  0.03018437  0.84922248     0.77600
C965        C  0.74696016  0.20252990  0.02217394     0.03600
C966        C  0.74274390  0.20300102  0.05963089    -0.12500
C967        C  0.75912223  0.22579930  0.08068785     0.01100
C968        C  0.78014733  0.24826424  0.06426397    -0.11000
C969        C  0.78438320  0.24823028  0.02673376     0.03600
C970        C  0.76753508  0.22546689  0.00565542    -0.10500
H971        H  0.72629479  0.18583753  0.07239384     0.09200
H972        H  0.79286347  0.26595172  0.08056793     0.06700
H973        H  0.77038853  0.22560885  0.97680664     0.06600
C974        C  0.49093704  0.45579663  0.37676182     0.03600
C975        C  0.49405537  0.46074235  0.33952799    -0.12500
C976        C  0.51735391  0.00898240  0.31642799     0.01100
C977        C  0.95830538  0.00782546  0.33608595    -0.11000
C978        C  0.95318311  0.00196596  0.37277323     0.03600
C979        C  0.46971634  0.47546559  0.39698601    -0.10500
H980        H  0.51068988  0.44577212  0.32388803     0.09200
H981        H  0.94396787  0.02619146  0.32249394     0.06700
H982        H  0.51990571  0.01583270  0.42075536     0.06600
Zn983      Zn  0.72612248  0.26495116  0.41823240     1.49700
Zn984      Zn  0.76066959  0.22485041  0.48074510     1.49400
Zn985      Zn  0.68351164  0.23112339  0.48042049     1.49100
Zn986      Zn  0.71892361  0.18877504  0.41964034     1.49500
O987        O  0.72233023  0.22740457  0.44992692    -1.83600
O988        O  0.76491863  0.29255654  0.43061533    -0.74300
O989        O  0.74798174  0.22358771  0.53337570    -0.74100
O990        O  0.65677783  0.27040636  0.46648082    -0.73600
O991        O  0.78902997  0.26452113  0.47388263    -0.74300
O992        O  0.68621578  0.29257875  0.42278521    -0.73900
O993        O  0.69493196  0.23331029  0.53334491    -0.74500
O994        O  0.67922435  0.16226826  0.43153176    -0.73800
O995        O  0.78756138  0.18508672  0.46889505    -0.74600
O996        O  0.65553826  0.19136103  0.47480088    -0.74000
O997        O  0.75769360  0.16054123  0.42740515    -0.74500
O998        O  0.71911736  0.19931862  0.36669322    -0.74400
O999        O  0.72994489  0.25204188  0.36608249    -0.74200
C1000       C  0.78774606  0.28924908  0.45328046     0.77600
C1001       C  0.72135513  0.22840397  0.55037512     0.78100
C1002       C  0.66087569  0.29238099  0.44266416     0.77100
C1003       C  0.65677152  0.16617817  0.45491692     0.77500
C1004       C  0.78302439  0.16180537  0.44689755     0.78600
C1005       C  0.72529493  0.22535184  0.34950575     0.77600
C1006       C  0.95607014  0.45420901  0.51611241     0.03600
C1007       C  0.52149833  0.52996245  0.50972822    -0.12500
C1008       C  0.49807620  0.99564252  0.52150063     0.01100
C1009       C  0.50138158  0.99537584  0.55894594    -0.11000
C1010       C  0.48140694  0.97542918  0.58007885     0.03600
C1011       C  0.95805749  0.45210337  0.55373646    -0.10500
H1012       H  0.47275008  0.97584407  0.47600595     0.09200
H1013       H  0.51921309  0.01100198  0.57165041     0.06700
H1014       H  0.94171918  0.43610819  0.56843205     0.06600
C1015       C  0.53020907  0.07286721  0.48008787    -0.22000
C1016       C  0.56247479  0.06372778  0.47286393     0.10000
C1017       C  0.57226205  0.03111906  0.47739615     0.10400
C1018       C  0.54966508  0.00844798  0.49056557    -0.16900
C1019       C  0.51803600  0.01814379  0.50017842    -0.27300
C1020       C  0.50785215  0.05049418  0.49416052     0.18700
C1021       C  0.58662501  0.08967880  0.46700244     0.12700
C1022       C  0.60698713  0.02081204  0.47060689    -0.11700
H1023       H  0.55723665  0.98359970  0.49555328     0.13000
C1024       C  0.47435104  0.06265645  0.50432208    -0.22500
H1025       H  0.52301459  0.09807201  0.47684925     0.08600
C1026       C  0.59569553  0.10041814  0.43241230     0.05000
C1027       C  0.61871009  0.12554471  0.42908731    -0.19700
C1028       C  0.63209992  0.14041952  0.45969914    -0.12000
C1029       C  0.62278638  0.12945078  0.49437298     0.13700
C1030       C  0.60017336  0.10415199  0.49748315    -0.22400
C1031       C  0.58080539  0.08560892  0.39932471    -0.05500
H1032       H  0.62598584  0.13388825  0.40256179     0.15200
C1033       C  0.63736851  0.14337717  0.52819622    -0.15700
H1034       H  0.59292671  0.09548120  0.52392590     0.09500
H1035       H  0.46276420  0.07380237  0.48051238     0.07400
H1036       H  0.00683484  0.14212872  0.47030321     0.08600
H1037       H  0.99424016  0.10104474  0.47749961     0.07600
H1038       H  0.62347152  0.03394144  0.48916032     0.02500
H1039       H  0.61416341  0.02651717  0.44251317     0.03000
H1040       H  0.61023198  0.99430061  0.47486940     0.06500
H1041       H  0.59031664  0.09704033  0.37430683     0.05500
H1042       H  0.55399475  0.08899234  0.40023634    -0.00300
H1043       H  0.58624712  0.05921181  0.39817115     0.01200
H1044       H  0.62867521  0.13036077  0.55262881     0.04800
H1045       H  0.63034135  0.16928941  0.53123375     0.06800
H1046       H  0.66434970  0.14123421  0.52707629     0.07700
C1047       C  0.87542167  0.41989823  0.48543481    -0.22000
C1048       C  0.88528503  0.38911729  0.47333612     0.10000
C1049       C  0.91879480  0.38166234  0.47072224     0.10400
C1050       C  0.94174852  0.40448406  0.48261359    -0.16900
C1051       C  0.93174555  0.43435934  0.49714294    -0.27300
C1052       C  0.89831794  0.44272988  0.49735084     0.18700
C1053       C  0.86021275  0.36377572  0.46792962     0.12700
C1054       C  0.93014774  0.34912623  0.45684328    -0.11700
H1055       H  0.96745276  0.39836971  0.48233273     0.13000
C1056       C  0.88603955  0.47512102  0.51080010    -0.22500
H1057       H  0.84963165  0.42558434  0.48708035     0.08600
C1058       C  0.84907079  0.34487274  0.49715309     0.05000
C1059       C  0.82570170  0.32066341  0.49130216    -0.19700
C1060       C  0.81281155  0.31505496  0.45694771    -0.12000
C1061       C  0.82411198  0.33411061  0.42754434     0.13700
C1062       C  0.84780042  0.35822795  0.43349175    -0.22400
C1063       C  0.86193154  0.35025507  0.53457245    -0.05500
H1064       H  0.81709338  0.30631296  0.51390312     0.15200
C1065       C  0.81220563  0.32865352  0.38974974    -0.15700
H1066       H  0.85676972  0.37280315  0.41123364     0.09500
H1067       H  0.89787314  0.03012893  0.52964733     0.07400
H1068       H  0.87221728  0.48738795  0.48910289     0.08600
H1069       H  0.93164886  0.05449311  0.51410254     0.07600
H1070       H  0.92152547  0.34562288  0.42887252     0.02500
H1071       H  0.92021809  0.32938621  0.47409151     0.03000
H1072       H  0.95715709  0.34720643  0.45672778     0.06500
H1073       H  0.85074161  0.33326295  0.55431230     0.05500
H1074       H  0.85642527  0.37547185  0.54344651    -0.00300
H1075       H  0.88872275  0.34644065  0.53478763     0.01200
H1076       H  0.78588230  0.33459667  0.38800950     0.04800
H1077       H  0.81628459  0.30291579  0.38180369     0.06800
H1078       H  0.82527322  0.34431708  0.37003842     0.07700
C1079       C  0.61399235  0.36759768  0.41128130    -0.22000
C1080       C  0.58374702  0.36264368  0.42804008     0.10000
C1081       C  0.57902708  0.33511424  0.45006072     0.10400
C1082       C  0.60474372  0.31302865  0.45455199    -0.16900
C1083       C  0.63521067  0.31763462  0.43755693    -0.27300
C1084       C  0.63988577  0.34575612  0.41580369     0.18700
C1085       C  0.55713414  0.38577410  0.41984138     0.12700
C1086       C  0.54717795  0.32918067  0.46938188    -0.11700
H1087       H  0.60077766  0.29181604  0.47129365     0.13000
C1088       C  0.67179151  0.35347037  0.39718207    -0.22500
H1089       H  0.61715693  0.38863589  0.39403067     0.08600
C1090       C  0.55812896  0.41847689  0.43150685     0.05000
C1091       C  0.53498013  0.44057838  0.41850715    -0.19700
C1092       C  0.51092078  0.43062577  0.39427343    -0.12000
C1093       C  0.50856145  0.39744209  0.38461637     0.13700
C1094       C  0.53209266  0.37554692  0.39700936    -0.22400
C1095       C  0.58351555  0.43003920  0.45764285    -0.05500
H1096       H  0.53634187  0.46596459  0.42625882     0.15200
C1097       C  0.48141749  0.38431048  0.36166631    -0.15700
H1098       H  0.53125714  0.35041011  0.38822584     0.09500
H1099       H  0.67097760  0.37718895  0.38292787     0.07400
H1100       H  0.67747052  0.33460633  0.37670178     0.08600
H1101       H  0.69165223  0.35492806  0.41725235     0.07600
H1102       H  0.52692655  0.32734811  0.44989769     0.02500
H1103       H  0.54240960  0.34939538  0.48838439     0.03000
H1104       H  0.54765080  0.30627343  0.48518798     0.06500
H1105       H  0.57995953  0.45602587  0.46488953     0.05500
H1106       H  0.60825478  0.42746177  0.44571266    -0.00300
H1107       H  0.58195038  0.41543903  0.48269762     0.01200
H1108       H  0.49172345  0.37412419  0.33636479     0.04800
H1109       H  0.01251053  0.46188702  0.40787800     0.06800
H1110       H  0.46847493  0.36468864  0.37652453     0.07700
C1111       C  0.85284468  0.10192985  0.46178283    -0.22000
C1112       C  0.85557740  0.08834599  0.42728925     0.10000
C1113       C  0.83414707  0.09830216  0.39996138     0.10400
C1114       C  0.81057614  0.12184913  0.40769121    -0.16900
C1115       C  0.80809261  0.13623009  0.44191599    -0.27300
C1116       C  0.82951295  0.12603630  0.46946175     0.18700
C1117       C  0.88195746  0.06492920  0.41930646     0.12700
C1118       C  0.83675347  0.08494046  0.36222167    -0.11700
H1119       H  0.79446743  0.12968160  0.38641063     0.13000
C1120       C  0.82775490  0.13989073  0.50698051    -0.22500
H1121       H  0.86939931  0.09399846  0.48259221     0.08600
C1122       C  0.91460673  0.07528419  0.41532324     0.05000
C1123       C  0.93789208  0.05334662  0.40208603    -0.19700
C1124       C  0.92909193  0.02161897  0.39246350    -0.12000
C1125       C  0.89677816  0.01077502  0.39806884     0.13700
C1126       C  0.87367920  0.03252139  0.41201924    -0.22400
C1127       C  0.92459686  0.10974940  0.42348931    -0.05500
H1128       H  0.96282430  0.06135272  0.39770655     0.18400
C1129       C  0.88545794  0.97714194  0.38798285    -0.15700
H1130       H  0.84859606  0.02462511  0.41552577     0.09500
H1131       H  0.83409039  0.16612513  0.50652592     0.07400
H1132       H  0.84515706  0.12766752  0.52531204     0.08600
H1133       H  0.80282891  0.13661195  0.51824688     0.07600
H1134       H  0.83183470  0.05840748  0.36226420     0.02500
H1135       H  0.86158733  0.08947200  0.35124181     0.03000
H1136       H  0.81892437  0.09650316  0.34388901     0.06500
H1137       H  0.95084304  0.11392131  0.41757087     0.05500
H1138       H  0.92036194  0.11507691  0.45241621    -0.00300
H1139       H  0.91021157  0.12691587  0.40691192     0.01200
H1140       H  0.87534576  0.96481009  0.41215111     0.04800
H1141       H  0.90520819  0.96174685  0.37670781     0.06800
H1142       H  0.86600092  0.97896011  0.36747654     0.07700
C1143       C  0.72308535  0.24426380  0.17269639    -0.22000
C1144       C  0.74246509  0.22461397  0.19470324     0.10000
C1145       C  0.76724448  0.20520449  0.17918153     0.10400
C1146       C  0.77254866  0.20635540  0.14185827    -0.16900
C1147       C  0.75344772  0.22631414  0.11991349    -0.27300
C1148       C  0.72820633  0.24519128  0.13532780     0.18700
C1149       C  0.73721475  0.22552650  0.23412391     0.12700
C1150       C  0.78799886  0.18333909  0.20206101    -0.11700
H1151       H  0.79151981  0.19154359  0.12967830     0.13000
C1152       C  0.70668133  0.26612189  0.11225355    -0.22500
H1153       H  0.70403102  0.25898500  0.18486446     0.08600
C1154       C  0.75353432  0.24839264  0.25570454     0.05000
C1155       C  0.74882374  0.24782113  0.29308210    -0.19700
C1156       C  0.72824500  0.22477118  0.30958980    -0.12000
C1157       C  0.71140819  0.20211307  0.28763002     0.13700
C1158       C  0.71613901  0.20289008  0.25012994    -0.22400
C1159       C  0.77612273  0.27325297  0.23923094    -0.05500
H1160       H  0.76179730  0.26521399  0.30955299     0.15200
C1161       C  0.68789662  0.17755039  0.30311705    -0.15700
H1162       H  0.70356885  0.18558664  0.23314397     0.09500
H1163       H  0.68809618  0.27928823  0.12855989     0.07400
H1164       H  0.69373722  0.25069584  0.09240055     0.08600
H1165       H  0.72172217  0.28435792  0.09769029     0.07600
H1166       H  0.77229032  0.16535040  0.21618485     0.02500
H1167       H  0.80127883  0.19801728  0.22228091     0.03000
H1168       H  0.80623191  0.16979391  0.18566201     0.06500
H1169       H  0.78704991  0.28930620  0.25992976     0.05500
H1170       H  0.76243396  0.28874199  0.22011954    -0.00300
H1171       H  0.79625613  0.26081709  0.22457555     0.01200
H1172       H  0.66880452  0.19015618  0.31924243     0.04800
H1173       H  0.70109540  0.15990136  0.32023710     0.06800
H1174       H  0.67549764  0.16343139  0.28171775     0.07700
C1175       C  0.88266868  0.36863320  0.00509542    -0.22000
C1176       C  0.87415124  0.34689711  0.97773453     0.10000
C1177       C  0.88810663  0.35045582  0.94321226     0.10400
C1178       C  0.91097392  0.37534758  0.93703410    -0.16900
C1179       C  0.92004467  0.39708800  0.96452169    -0.27300
C1180       C  0.90536632  0.39369239  0.99907489     0.18700
C1181       C  0.85131601  0.32001615  0.98652753     0.12700
C1182       C  0.87890138  0.32788659  0.91303475    -0.11700
H1183       H  0.92186349  0.37778834  0.91051399     0.13000
C1184       C  0.91419049  0.41539081  0.03025411    -0.22500
H1185       H  0.87178648  0.36558153  0.03155512     0.08600
C1186       C  0.86257896  0.28914670  0.99773911     0.05000
C1187       C  0.83995627  0.26572651  0.00934103    -0.19700
C1188       C  0.80643187  0.27234841  0.00995551    -0.12000
C1189       C  0.79504756  0.30273017  0.99742349     0.13700
C1190       C  0.81769448  0.32626118  0.98601856    -0.22400
C1191       C  0.89824305  0.28036702  0.99861903    -0.05500
H1192       H  0.84860812  0.24234357  0.01885061     0.15200
C1193       C  0.75933600  0.31128161  0.99626858    -0.15700
H1194       H  0.80909882  0.34987142  0.97724261     0.09500
H1195       H  0.90156884  0.40796293  0.05548045     0.07400
H1196       H  0.90685997  0.44083260  0.02451556     0.08600
H1197       H  0.94084619  0.41419269  0.03510799     0.07600
H1198       H  0.85232992  0.32981803  0.90797385     0.02500
H1199       H  0.88491314  0.30242132  0.92034135     0.03000
H1200       H  0.89206670  0.33392286  0.88769122     0.06500
H1201       H  0.90267433  0.25892793  0.98105966     0.05500
H1202       H  0.90524921  0.27412956  0.02656436    -0.00300
H1203       H  0.91435754  0.30030209  0.98921544     0.01200
H1204       H  0.75464635  0.33290069  0.01346370     0.04800
H1205       H  0.74332035  0.29130588  0.00580280     0.06800
H1206       H  0.75243089  0.31708607  0.96817379     0.07700
C1207       C  0.62938059  0.10873873  0.99148602    -0.22000
C1208       C  0.65419631  0.11261424  0.96575480     0.10000
C1209       C  0.65383628  0.09372838  0.93406920     0.10400
C1210       C  0.62852885  0.07113497  0.92887819    -0.16900
C1211       C  0.60414637  0.06667347  0.95512551    -0.27300
C1212       C  0.60432430  0.08604139  0.98662283     0.18700
C1213       C  0.68104717  0.13546696  0.97393582     0.12700
C1214       C  0.68051551  0.09697831  0.90628755    -0.11700
H1215       H  0.62831940  0.05620303  0.90484849     0.13000
C1216       C  0.57833967  0.08374447  0.01548178    -0.22500
H1217       H  0.62977015  0.12335978  0.01578787     0.08600
C1218       C  0.67858478  0.16904321  0.96652538     0.05000
C1219       C  0.70247741  0.19032705  0.97972161    -0.19700
C1220       C  0.72812756  0.17875416  0.00094917    -0.12000
C1221       C  0.73148880  0.14489328  0.00665392     0.13700
C1222       C  0.70788525  0.12367923  0.99300246    -0.22400
C1223       C  0.65001034  0.18250084  0.94616252    -0.05500
H1224       H  0.69990290  0.21630423  0.97559385     0.15200
C1225       C  0.75904359  0.13052933  0.02808824    -0.15700
H1226       H  0.70972185  0.09784945  0.99850855     0.09500
H1227       H  0.56668156  0.10791127  0.01916548     0.07400
H1228       H  0.58961310  0.07631296  0.04125811     0.08600
H1229       H  0.55876930  0.06614467  0.00906550     0.07600
H1230       H  0.70429239  0.09063321  0.91850145     0.02500
H1231       H  0.68152407  0.12236880  0.89622580     0.03000
H1232       H  0.67651680  0.08056528  0.88299929     0.06500
H1233       H  0.65177773  0.20929889  0.94284147     0.05500
H1234       H  0.62700089  0.17702939  0.96091670    -0.00300
H1235       H  0.64904639  0.17131205  0.91903943     0.01200
H1236       H  0.74913587  0.11923932  0.05297990     0.04800
H1237       H  0.77763861  0.14882367  0.03565860     0.06800
H1238       H  0.77160996  0.11146232  0.01203326     0.07700
C1239       C  0.96280490  0.05187148  0.67406736    -0.22000
C1240       C  0.49497648  0.97421937  0.69419016     0.10000
C1241       C  0.53088519  0.52902499  0.68238978     0.10400
C1242       C  0.53371474  0.53083921  0.64482832    -0.16900
C1243       C  0.48516034  0.97529877  0.61943656    -0.27300
C1244       C  0.96454667  0.05519514  0.63653847     0.18700
C1245       C  0.49945117  0.97426932  0.73357742     0.12700
C1246       C  0.55974971  0.51841657  0.70427949    -0.11700
H1247       H  0.55647526  0.52403197  0.63185074     0.13000
C1248       C  0.93365164  0.06380864  0.61698315    -0.22500
H1249       H  0.93951635  0.05462083  0.68776550     0.08600
C1250       C  0.98785937  0.06905174  0.75657732     0.05000
C1251       C  0.98711465  0.06439608  0.79393549    -0.19700
C1252       C  0.98640714  0.03300423  0.80916544    -0.12000
C1253       C  0.48708672  0.50070198  0.79139604     0.13700
C1254       C  0.48985330  0.50453688  0.75393669    -0.22400
C1255       C  0.98927144  0.10303098  0.74150819    -0.05500
H1256       H  0.98729925  0.08556808  0.81127297     0.15200
C1257       C  0.48004533  0.46704768  0.80564164    -0.15700
H1258       H  0.48703758  0.48366051  0.73636763     0.09500
H1259       H  0.92308997  0.08631977  0.62877779     0.07400
H1260       H  0.92360429  0.52145139  0.63057632     0.08600
H1261       H  0.93761959  0.06848788  0.58794380     0.07600
H1262       H  0.55364602  0.49589005  0.71933687     0.02500
H1263       H  0.56179115  0.95751611  0.70102606     0.03000
H1264       H  0.58139422  0.51332559  0.68704142     0.06500
H1265       H  0.98946259  0.12168892  0.76311735     0.05500
H1266       H  0.96766947  0.10748358  0.72438710    -0.00300
H1267       H  0.54448891  0.02244203  0.71061942     0.01200
H1268       H  0.94173726  0.44642794  0.82801967     0.04800
H1269       H  0.50030029  0.45883032  0.82305551     0.06800
H1270       H  0.47762788  0.44891505  0.78364861     0.07700
C1271       C  0.54351302  0.01335999  0.21813709    -0.22000
C1272       C  0.02675445  0.49979956  0.19621678     0.10000
C1273       C  0.01881843  0.47421126  0.21995877     0.10400
C1274       C  0.02037264  0.47952798  0.25722077    -0.16900
C1275       C  0.98549392  0.99463941  0.27761920    -0.27300
C1276       C  0.54449125  0.01721252  0.25560253     0.18700
C1277       C  0.98843799  0.00645885  0.16289888     0.12700
C1278       C  0.00842748  0.44148110  0.20590668    -0.11700
H1279       H  0.01380196  0.46009720  0.27560652     0.13000
C1280       C  0.57448851  0.03266043  0.27145299    -0.22500
H1281       H  0.56431341  0.02068610  0.20186262     0.08600
C1282       C  0.96400256  0.02424203  0.14513593     0.05000
C1283       C  0.96554170  0.02743545  0.10763391    -0.19700
C1284       C  0.99077995  0.01300718  0.08729490    -0.12000
C1285       C  0.49587357  0.47924034  0.10899019     0.13700
C1286       C  0.49475363  0.47624145  0.14658074    -0.22400
C1287       C  0.93588127  0.03917768  0.16561238    -0.05500
H1288       H  0.94672563  0.04123559  0.09414664     0.15200
C1289       C  0.50622621  0.44978929  0.08752836    -0.15700
H1290       H  0.50195500  0.45350473  0.15901572     0.09500
H1291       H  0.57868694  0.05671244  0.25866585     0.07400
H1292       H  0.59598562  0.01691142  0.26613908     0.08600
H1293       H  0.57251257  0.03684216  0.30081994     0.07600
H1294       H  0.02822977  0.43088641  0.18908334     0.02500
H1295       H  0.98616907  0.44416960  0.18936574     0.03000
H1296       H  0.00291260  0.42421863  0.22809950     0.06500
H1297       H  0.91837575  0.05136681  0.14738494     0.05500
H1298       H  0.94500698  0.05767591  0.18480464    -0.00300
H1299       H  0.92253561  0.01997135  0.18067324     0.01200
H1300       H  0.53182717  0.44348742  0.09407621     0.04800
H1301       H  0.50444667  0.45322815  0.05808537     0.06800
H1302       H  0.49030787  0.42888850  0.09468986     0.07700
C1303       C  0.72940966  0.26852890  0.72003923    -0.22000
C1304       C  0.71866938  0.23865965  0.70635494     0.10000
C1305       C  0.70947054  0.21365790  0.73032947     0.10400
C1306       C  0.71107893  0.21920734  0.76759758    -0.16900
C1307       C  0.72176668  0.24916632  0.78140107    -0.27300
C1308       C  0.73142073  0.27405169  0.75722426     0.18700
C1309       C  0.71808429  0.23407863  0.66674861     0.12700
C1310       C  0.69786134  0.18126235  0.71652533    -0.11700
H1311       H  0.70388858  0.20010547  0.78612833     0.13000
C1312       C  0.74505838  0.30623483  0.76947159    -0.22500
H1313       H  0.73683159  0.28753294  0.70147287     0.08600
C1314       C  0.69193334  0.24542534  0.64588836     0.05000
C1315       C  0.69356533  0.24272693  0.60824666    -0.19700
C1316       C  0.72087818  0.22901232  0.59065525    -0.12000
C1317       C  0.74670816  0.21660449  0.61205048     0.13700
C1318       C  0.74488188  0.21944282  0.64973437    -0.22400
C1319       C  0.66235132  0.26050859  0.66343579    -0.05500
H1320       H  0.67349522  0.25200403  0.59249799     0.15200
C1321       C  0.77620504  0.20002082  0.59591422    -0.15700
H1322       H  0.76473071  0.21059027  0.66614665     0.09500
H1323       H  0.72888529  0.32621570  0.76039522     0.07400
H1324       H  0.76965359  0.30978867  0.75739157     0.08600
H1325       H  0.74773085  0.30804616  0.79901003     0.07600
H1326       H  0.71737563  0.16964870  0.70012179     0.02500
H1327       H  0.67593737  0.18475094  0.69963529     0.03000
H1328       H  0.69135729  0.16447620  0.73885464     0.06500
H1329       H  0.64389019  0.26785879  0.64330953     0.05500
H1330       H  0.66958174  0.28247313  0.67879820    -0.00300
H1331       H  0.65083432  0.24273593  0.68208121     0.01200
H1332       H  0.79052942  0.21755395  0.57953172     0.04800
H1333       H  0.76844187  0.17915778  0.57902038     0.06800
H1334       H  0.79271238  0.19039369  0.61692251     0.07700
C1335       C  0.82513973  0.21164403  0.92279835    -0.22000
C1336       C  0.81901368  0.17832712  0.92696897     0.10000
C1337       C  0.78785138  0.16577204  0.91911551     0.10400
C1338       C  0.76388941  0.18662373  0.90552449    -0.16900
C1339       C  0.77075856  0.21948144  0.89894309    -0.27300
C1340       C  0.80150503  0.23238340  0.90835404     0.18700
C1341       C  0.84684004  0.15635559  0.93373773     0.12700
C1342       C  0.78056026  0.13007531  0.92304427    -0.11700
H1343       H  0.74022634  0.17696404  0.89829640     0.13000
C1344       C  0.81080831  0.26735446  0.90186930    -0.22500
H1345       H  0.84917150  0.22111449  0.92874814     0.08600
C1346       C  0.86743244  0.14672825  0.90512136     0.05000
C1347       C  0.89281902  0.12485827  0.91168443    -0.19700
C1348       C  0.89801815  0.11190166  0.94612326    -0.12000
C1349       C  0.87755076  0.12196304  0.97501826     0.13700
C1350       C  0.85217211  0.14419816  0.96839744    -0.22400
C1351       C  0.86216347  0.15900148  0.86738284    -0.05500
H1352       H  0.90823571  0.11718600  0.88944990     0.15200
C1353       C  0.88269517  0.11010245  0.01288217    -0.15700
H1354       H  0.83620933  0.15190673  0.99017392     0.09500
H1355       H  0.83201818  0.26838238  0.88317065     0.07400
H1356       H  0.81776599  0.27874834  0.92770789     0.08600
H1357       H  0.79091709  0.28202068  0.89010387     0.07600
H1358       H  0.78457984  0.12247476  0.95123288     0.02500
H1359       H  0.79688151  0.11577616  0.90508206     0.03000
H1360       H  0.75493480  0.12439236  0.91597877     0.06500
H1361       H  0.88011331  0.14854541  0.84807575     0.05500
H1362       H  0.86472997  0.18586293  0.86670439    -0.00300
H1363       H  0.83736180  0.15221961  0.85823854     0.01200
H1364       H  0.86571632  0.12205399  0.03221633     0.04800
H1365       H  0.90799979  0.11561463  0.02140635     0.06800
H1366       H  0.87830415  0.08353311  0.01443053     0.07700
C1367       C  0.67446791  0.36156294  0.91142069    -0.22000
C1368       C  0.64238581  0.35322804  0.92083140     0.10000
C1369       C  0.63217552  0.32052328  0.91848595     0.10400
C1370       C  0.65389448  0.29703713  0.90508371    -0.16900
C1371       C  0.68542297  0.30567176  0.89391873    -0.27300
C1372       C  0.69623149  0.33810933  0.89800236     0.18700
C1373       C  0.61867267  0.37957677  0.92805380     0.12700
C1374       C  0.59814336  0.31063067  0.92935082    -0.11700
H1375       H  0.64595618  0.27202406  0.90219793     0.13000
C1376       C  0.73012352  0.34891358  0.88754276    -0.22500
H1377       H  0.68215346  0.38674734  0.91320909     0.08600
C1378       C  0.61492902  0.39405413  0.96219148     0.05000
C1379       C  0.59163638  0.41883746  0.96696337    -0.19700
C1380       C  0.57187178  0.42919125  0.93834045    -0.12000
C1381       C  0.57616813  0.41467187  0.90393852     0.13700
C1382       C  0.59955510  0.39016720  0.89938907    -0.22400
C1383       C  0.63529669  0.38311836  0.99344963    -0.05500
H1384       H  0.58856837  0.42985292  0.99325868     0.15200
C1385       C  0.55706807  0.42526520  0.87142972    -0.15700
H1386       H  0.60296318  0.37898001  0.87322812     0.09500
H1387       H  0.74243519  0.35939845  0.91139292     0.07400
H1388       H  0.72862670  0.36782722  0.86631145     0.08600
H1389       H  0.74552505  0.32879953  0.87715043     0.07600
H1390       H  0.58004669  0.32339938  0.91239100     0.02500
H1391       H  0.59377108  0.31705336  0.95799899     0.03000
H1392       H  0.59429581  0.28404305  0.92621344     0.06500
H1393       H  0.62917438  0.39677864  0.01839260     0.05500
H1394       H  0.66151790  0.38705155  0.98722898    -0.00300
H1395       H  0.63106530  0.35685474  0.99861302     0.01200
H1396       H  0.56555754  0.41284630  0.84652650     0.04800
H1397       H  0.55995055  0.45185484  0.86724589     0.06800
H1398       H  0.53090113  0.41913501  0.87504047     0.07700
C1399       C  0.79887006  0.72466882  0.87294161     0.03600
C1400       C  0.80089338  0.72896162  0.83551374    -0.12500
C1401       C  0.78078160  0.75155376  0.81830085     0.01100
C1402       C  0.75824927  0.76950640  0.83864159    -0.11000
C1403       C  0.75590899  0.76523366  0.87600982     0.03600
C1404       C  0.77618530  0.74270467  0.89317535    -0.10500
H1405       H  0.81832969  0.71493672  0.81987324     0.09200
H1406       H  0.74246181  0.78682130  0.82536220     0.06700
H1407       H  0.77478794  0.73974111  0.92208508     0.06600
Zn1408     Zn  0.98397700  0.98708606  0.91506911     1.49700
Zn1409     Zn  0.97753651  0.48679935  0.97472495     1.49400
Zn1410     Zn  0.52613224  0.51613292  0.98428129     1.49100
Zn1411     Zn  0.01764628  0.51636477  0.90721098     1.49500
O1412       O  0.01420149  0.48019752  0.94129855    -1.83600
O1413       O  0.94512071  0.95894751  0.92648043    -0.74300
O1414       O  0.99342761  0.49077005  0.02592852    -0.74100
O1415       O  0.57846086  0.93722486  0.96503248    -0.73600
O1416       O  0.92311229  0.98404419  0.97384492    -0.74300
O1417       O  0.54660420  0.91163795  0.92639071    -0.73900
O1418       O  0.51332568  0.50940902  0.03631587    -0.74500
O1419       O  0.53072884  0.58780115  0.94123433    -0.73800
O1420       O  0.95211066  0.52730410  0.96170738    -0.74600
O1421       O  0.55436886  0.55622309  0.98176138    -0.74000
O1422       O  0.98011187  0.54688448  0.91509110    -0.74500
O1423       O  0.01481282  0.50068698  0.85551961    -0.74400
O1424       O  0.98134534  0.00288637  0.86414917    -0.74200
C1425       C  0.92403985  0.96045538  0.95168560     0.77600
C1426       C  0.02092921  0.48596048  0.04079757     0.78100
C1427       C  0.57314240  0.91348935  0.94375370     0.77100
C1428       C  0.55324917  0.58264473  0.96395532     0.77500
C1429       C  0.95639857  0.54868710  0.93732058     0.78600
C1430       C  0.00648181  0.47345403  0.84191165     0.77600
C1431       C  0.72155973  0.74950430  0.02384218     0.03600
C1432       C  0.72619282  0.74676486  0.06106743    -0.12500
C1433       C  0.74765473  0.76762352  0.07890957     0.01100
C1434       C  0.76530759  0.79063801  0.05906085    -0.11000
C1435       C  0.76083307  0.79367067  0.02182301     0.03600
C1436       C  0.73899225  0.77295719  0.00417141    -0.10500
H1437       H  0.71284682  0.72849862  0.07615859     0.09200
H1438       H  0.78217582  0.80667070  0.07272300     0.06700
H1439       H  0.73526881  0.77538621  0.97553918     0.06600
C1440       C  0.54080855  0.99287350  0.37369755     0.03600
C1441       C  0.53979517  0.99064828  0.33606248    -0.12500
C1442       C  0.47588774  0.48496701  0.32239911     0.01100
C1443       C  0.00774440  0.53655776  0.32672169    -0.11000
C1444       C  0.00721639  0.54089830  0.36413826     0.03600
C1445       C  0.51880389  0.01339103  0.39185393    -0.10500
H1446       H  0.55695593  0.97506459  0.32194201     0.09200
H1447       H  0.99143384  0.55062360  0.30999625     0.06700
H1448       H  0.46745218  0.47200367  0.42574420     0.06600
Zn1449     Zn  0.78312829  0.81122760  0.41500957     1.49700
Zn1450     Zn  0.81928956  0.77141847  0.47601824     1.49400
Zn1451     Zn  0.74223691  0.77979184  0.48033670     1.49100
Zn1452     Zn  0.77436273  0.73473620  0.41980334     1.49500
O1453       O  0.77960448  0.77438529  0.44789541    -1.83600
O1454       O  0.82197892  0.83981049  0.42668225    -0.74300
O1455       O  0.80857463  0.76659968  0.52867818    -0.74100
O1456       O  0.71563955  0.81982555  0.46719767    -0.73600
O1457       O  0.84507252  0.81285058  0.47164996    -0.74300
O1458       O  0.74308357  0.83895070  0.41991016    -0.73900
O1459       O  0.75663182  0.78117391  0.53247721    -0.74500
O1460       O  0.73622099  0.70761946  0.43727315    -0.73800
O1461       O  0.84762916  0.73383255  0.45932623    -0.74600
O1462       O  0.71278888  0.74053521  0.47688940    -0.74000
O1463       O  0.81517426  0.70775322  0.42160345    -0.74500
O1464       O  0.76825465  0.74527831  0.36757371    -0.74400
O1465       O  0.78431589  0.79655673  0.36303774    -0.74200
C1466       C  0.84367153  0.83742222  0.45090521     0.77600
C1467       C  0.78329537  0.77297461  0.54747958     0.78100
C1468       C  0.71873713  0.83996911  0.44130366     0.77100
C1469       C  0.71358558  0.71357528  0.46002914     0.77500
C1470       C  0.84238157  0.71043831  0.43762747     0.78600
C1471       C  0.77539479  0.76994223  0.34844883     0.77600
C1472       C  0.98564576  0.02392882  0.52227829     0.03600
C1473       C  0.47505820  0.97566623  0.50499424    -0.12500
C1474       C  0.53988917  0.55298779  0.52883686     0.01100
C1475       C  0.53468300  0.55674255  0.56604198    -0.11000
C1476       C  0.51093970  0.53826891  0.58402148     0.03600
C1477       C  0.98073792  0.02718227  0.55940743    -0.10500
H1478       H  0.52585920  0.52629534  0.48122331     0.09200
H1479       H  0.54929557  0.57392901  0.58107908     0.06700
H1480       H  0.96354419  0.01132849  0.57308235     0.06600
C1481       C  0.58513562  0.61618092  0.47251695    -0.22000
C1482       C  0.61661968  0.61324075  0.48659539     0.10000
C1483       C  0.62331033  0.58846585  0.51167772     0.10400
C1484       C  0.59796397  0.56815004  0.52347230    -0.16900
C1485       C  0.56598009  0.57216824  0.51102678    -0.27300
C1486       C  0.55956253  0.59609254  0.48456712     0.18700
C1487       C  0.64104831  0.63884071  0.47854410     0.12700
C1488       C  0.65706282  0.58398142  0.52659383    -0.11700
H1489       H  0.60286489  0.54966004  0.54349821     0.13000
C1490       C  0.52596275  0.60250113  0.46994629    -0.22500
H1491       H  0.58011703  0.63538618  0.45335935     0.08600
C1492       C  0.66064680  0.63834914  0.44729809     0.05000
C1493       C  0.68380030  0.66313940  0.44184962    -0.19700
C1494       C  0.68793351  0.68847722  0.46704408    -0.12000
C1495       C  0.66811025  0.68853338  0.49863842     0.13700
C1496       C  0.64490758  0.66384873  0.50366693    -0.22400
C1497       C  0.65734768  0.61145614  0.42005766    -0.05500
H1498       H  0.69877036  0.66262496  0.41769899     0.15200
C1499       C  0.67152070  0.71370302  0.52793699    -0.15700
H1500       H  0.62977145  0.66374376  0.52771085     0.09500
H1501       H  0.52602526  0.59819539  0.44043906     0.07400
H1502       H  0.97642927  0.57982154  0.51934788     0.08600
H1503       H  0.95967080  0.54117832  0.50655408     0.07600
H1504       H  0.66467439  0.60621073  0.54124549     0.02500
H1505       H  0.67453815  0.57922084  0.50425119     0.03000
H1506       H  0.65816150  0.56319023  0.54561016     0.06500
H1507       H  0.67472266  0.61448665  0.39722884     0.05500
H1508       H  0.63224367  0.61131292  0.40913914    -0.00300
H1509       H  0.66232241  0.58765879  0.43301311     0.01200
H1510       H  0.65516288  0.70862542  0.55121296     0.04800
H1511       H  0.66490844  0.73809296  0.51753084     0.06800
H1512       H  0.69692546  0.71384887  0.53807205     0.07700
C1513       C  0.91412316  0.97673316  0.48585805    -0.22000
C1514       C  0.92847844  0.94621784  0.48016395     0.10000
C1515       C  0.96233100  0.94227231  0.48505483     0.10400
C1516       C  0.98113107  0.96907943  0.49575920    -0.16900
C1517       C  0.96649837  0.99924707  0.50296517    -0.27300
C1518       C  0.93260286  0.00315494  0.49793029     0.18700
C1519       C  0.90709789  0.91809003  0.47258940     0.12700
C1520       C  0.97817947  0.90943927  0.48078830    -0.11700
H1521       H  0.00696412  0.96601156  0.50067183     0.13000
C1522       C  0.91499237  0.03433941  0.50684656    -0.22500
H1523       H  0.88803204  0.97954047  0.48246007     0.08600
C1524       C  0.88836009  0.90362909  0.50023755     0.05000
C1525       C  0.86845558  0.87696694  0.49215926    -0.19700
C1526       C  0.86652724  0.86459238  0.45703237    -0.12000
C1527       C  0.88580901  0.87875931  0.42941372     0.13700
C1528       C  0.90593788  0.90534706  0.43764867    -0.22400
C1529       C  0.88967927  0.91605878  0.53837166    -0.05500
H1530       H  0.85380841  0.86602363  0.51333080     0.15200
C1531       C  0.88676681  0.86594257  0.39144892    -0.15700
H1532       H  0.92102560  0.91608846  0.41674521     0.09500
H1533       H  0.86957791  0.47131680  0.53425890     0.07400
H1534       H  0.90080553  0.04228341  0.48331704     0.08600
H1535       H  0.90595202  0.49170344  0.51904193     0.07600
H1536       H  0.97554403  0.90079042  0.45268243     0.02500
H1537       H  0.96644113  0.89172851  0.49932488     0.03000
H1538       H  0.00453024  0.91028126  0.48723886     0.06500
H1539       H  0.87411912  0.90140352  0.55679299     0.05500
H1540       H  0.88094933  0.94159622  0.53952520    -0.00300
H1541       H  0.91512887  0.91495460  0.54825476     0.01200
H1542       H  0.87806567  0.88505333  0.37274440     0.04800
H1543       H  0.87170550  0.84388089  0.38767933     0.06800
H1544       H  0.91226063  0.85948204  0.38410394     0.07700
C1545       C  0.65620093  0.89404055  0.39600848    -0.22000
C1546       C  0.64474808  0.91261632  0.42506873     0.10000
C1547       C  0.65742656  0.90717989  0.45972049     0.10400
C1548       C  0.68128591  0.88299474  0.46451450    -0.16900
C1549       C  0.69323267  0.86479929  0.43523023    -0.27300
C1550       C  0.68046275  0.87043320  0.40048831     0.18700
C1551       C  0.61876194  0.93679688  0.41798005     0.12700
C1552       C  0.64638774  0.92738532  0.49131667    -0.11700
H1553       H  0.69114662  0.87872683  0.49105268     0.13000
C1554       C  0.69140631  0.85092848  0.36816863    -0.22500
H1555       H  0.64599043  0.89812041  0.36956300     0.08600
C1556       C  0.62523222  0.96507647  0.39768437     0.05000
C1557       C  0.59912578  0.98381574  0.38524198    -0.19700
C1558       C  0.56672186  0.97520906  0.39297632    -0.12000
C1559       C  0.56027854  0.94805041  0.41529222     0.13700
C1560       C  0.58649270  0.92916515  0.42750459    -0.22400
C1561       C  0.65964656  0.97532128  0.38890110    -0.05500
H1562       H  0.60394835  0.00483797  0.36841604     0.15200
C1563       C  0.52626815  0.93715917  0.42513565    -0.15700
H1564       H  0.58161833  0.90737117  0.44302785     0.09500
H1565       H  0.67728736  0.85725752  0.34376766     0.07400
H1566       H  0.68793513  0.82457819  0.37345766     0.08600
H1567       H  0.71745949  0.85586086  0.36207326     0.07600
H1568       H  0.61975918  0.92446514  0.49566799     0.02500
H1569       H  0.65197469  0.95337637  0.48605076     0.03000
H1570       H  0.65894920  0.92016332  0.51643137     0.06500
H1571       H  0.66029073  0.99858774  0.37371970     0.05500
H1572       H  0.67192708  0.95652165  0.37222781    -0.00300
H1573       H  0.67340999  0.97878850  0.41421491     0.01200
H1574       H  0.52232568  0.91195486  0.41532126     0.04800
H1575       H  0.97238010  0.90686695  0.33866589     0.06800
H1576       H  0.52333452  0.93746895  0.45484636     0.07700
C1577       C  0.91666879  0.65428867  0.44435782    -0.22000
C1578       C  0.91573887  0.63896367  0.41072686     0.10000
C1579       C  0.89105324  0.64710459  0.38618748     0.10400
C1580       C  0.86771434  0.67049040  0.39585451    -0.16900
C1581       C  0.86838136  0.68615148  0.42954266    -0.27300
C1582       C  0.89336181  0.67787717  0.45415183     0.18700
C1583       C  0.94072237  0.61425780  0.40155761     0.12700
C1584       C  0.88934884  0.63104501  0.34977967    -0.11700
H1585       H  0.84890969  0.67674056  0.37671185     0.13000
C1586       C  0.89528669  0.69294700  0.49105059    -0.22500
H1587       H  0.93574428  0.64768459  0.46298821     0.08600
C1588       C  0.97014607  0.62294500  0.38422983     0.05000
C1589       C  0.99179279  0.59841588  0.37320372    -0.19700
C1590       C  0.98499113  0.56548524  0.37981651    -0.12000
C1591       C  0.95585676  0.55686528  0.39805705     0.13700
C1592       C  0.93400297  0.58144099  0.40855978    -0.22400
C1593       C  0.97835590  0.65802912  0.37684998    -0.05500
H1594       H  0.01390098  0.60488948  0.35871436     0.18400
C1595       C  0.94649574  0.52212989  0.40588772    -0.15700
H1596       H  0.91129233  0.57493358  0.42183407     0.09500
H1597       H  0.90024044  0.71939758  0.48874277     0.07400
H1598       H  0.91523128  0.68215561  0.50717615     0.08600
H1599       H  0.87202853  0.68894651  0.50589176     0.07600
H1600       H  0.88632068  0.60439036  0.35308658     0.02500
H1601       H  0.91211450  0.63589216  0.33435418     0.03000
H1602       H  0.86852220  0.64026602  0.33380250     0.06500
H1603       H  0.00234248  0.66056523  0.36306013     0.05500
H1604       H  0.97936911  0.67167300  0.40259870    -0.00300
H1605       H  0.95948185  0.66904210  0.35942831     0.01200
H1606       H  0.94324218  0.51894306  0.43534163     0.04800
H1607       H  0.96489046  0.50428762  0.39644871     0.06800
H1608       H  0.92310125  0.51641760  0.39244429     0.07700
C1609       C  0.73065285  0.77314593  0.17936314    -0.22000
C1610       C  0.76154415  0.76634072  0.19333264     0.10000
C1611       C  0.78765453  0.75905334  0.16973031     0.10400
C1612       C  0.78227322  0.75898256  0.13249515    -0.16900
C1613       C  0.75140744  0.76602983  0.11843055    -0.27300
C1614       C  0.72528408  0.77339276  0.14214118     0.18700
C1615       C  0.76601178  0.76756487  0.23280645     0.12700
C1616       C  0.82129420  0.75214974  0.18380037    -0.11700
H1617       H  0.80230043  0.75370113  0.11417685     0.13000
C1618       C  0.69216649  0.78298601  0.12835902    -0.22500
H1619       H  0.71079408  0.77880397  0.19774931     0.08600
C1620       C  0.76730980  0.79738413  0.25146170     0.05000
C1621       C  0.77061739  0.79728603  0.28899173    -0.19700
C1622       C  0.77273086  0.76803146  0.30851551    -0.12000
C1623       C  0.77213806  0.73804779  0.28935980     0.13700
C1624       C  0.76860075  0.73835243  0.25181939    -0.22400
C1625       C  0.76558276  0.82932257  0.23170104    -0.05500
H1626       H  0.77117630  0.82032909  0.30315087     0.15200
C1627       C  0.77581820  0.70553900  0.30769753    -0.15700
H1628       H  0.76770637  0.71561086  0.23707525     0.09500
H1629       H  0.67533049  0.78988406  0.15063200     0.07400
H1630       H  0.68087674  0.76241580  0.11372775     0.08600
H1631       H  0.69455573  0.80418068  0.11003710     0.07600
H1632       H  0.82075431  0.73020619  0.20115758     0.02500
H1633       H  0.82999989  0.77324007  0.19973263     0.03000
H1634       H  0.83905346  0.74770693  0.16162922     0.06500
H1635       H  0.76780411  0.85036812  0.25026784     0.05500
H1636       H  0.74190398  0.83143660  0.21766414    -0.00300
H1637       H  0.78573628  0.83075723  0.21164411     0.01200
H1638       H  0.75465064  0.70093362  0.32575101     0.04800
H1639       H  0.79881004  0.70503827  0.32328164     0.06800
H1640       H  0.77683540  0.68519533  0.28804539     0.07700
C1641       C  0.87592340  0.89118885  0.99263761    -0.22000
C1642       C  0.85236453  0.88595093  0.96620089     0.10000
C1643       C  0.85339842  0.90409369  0.93402558     0.10400
C1644       C  0.87783548  0.92768036  0.92931275    -0.16900
C1645       C  0.90072522  0.93366419  0.95636761    -0.27300
C1646       C  0.90025495  0.91469808  0.98809474     0.18700
C1647       C  0.82583135  0.86277165  0.97442081     0.12700
C1648       C  0.82838892  0.89904330  0.90517239    -0.11700
H1649       H  0.87849571  0.94216562  0.90499490     0.13000
C1650       C  0.92522626  0.91818434  0.01745833    -0.22500
H1651       H  0.87510031  0.87699370  0.01720751     0.08600
C1652       C  0.82709206  0.82977631  0.96383414     0.05000
C1653       C  0.80365408  0.80805593  0.97740083    -0.19700
C1654       C  0.77964341  0.81849717  0.00189662    -0.12000
C1655       C  0.77735708  0.85188064  0.01079810     0.13700
C1656       C  0.80055610  0.87354559  0.99697902    -0.22400
C1657       C  0.85345189  0.81650488  0.93954701    -0.05500
H1658       H  0.80536532  0.78244823  0.97054991     0.15200
C1659       C  0.75130682  0.86533815  0.03547633    -0.15700
H1660       H  0.79960699  0.89893405  0.00488669     0.09500
H1661       H  0.93747650  0.89441711  0.02177084     0.07400
H1662       H  0.91293361  0.92563079  0.04285692     0.08600
H1663       H  0.94450537  0.93621358  0.01114322     0.07600
H1664       H  0.80365638  0.90395905  0.91624543     0.02500
H1665       H  0.82963255  0.87360448  0.89525722     0.03000
H1666       H  0.83252406  0.91549645  0.88191617     0.06500
H1667       H  0.84214197  0.80591763  0.91520458     0.05500
H1668       H  0.86712557  0.79719378  0.95387401    -0.00300
H1669       H  0.87113685  0.83530484  0.93071608     0.01200
H1670       H  0.76270623  0.87481558  0.06035782     0.04800
H1671       H  0.73265694  0.84701547  0.04305080     0.06800
H1672       H  0.73852524  0.88564572  0.02188421     0.07700
C1673       C  0.61778067  0.63712873  0.00651578    -0.22000
C1674       C  0.62371945  0.65923493  0.97863991     0.10000
C1675       C  0.60706506  0.65600911  0.94588179     0.10400
C1676       C  0.58459657  0.63054433  0.94175157    -0.16900
C1677       C  0.57837484  0.60818996  0.96969323    -0.27300
C1678       C  0.59529979  0.61169859  0.00266742     0.18700
C1679       C  0.64768841  0.68541842  0.98496852     0.12700
C1680       C  0.61261966  0.67972351  0.91562052    -0.11700
H1681       H  0.57177776  0.62816180  0.91650877     0.13000
C1682       C  0.58933537  0.58963185  0.03444902    -0.22500
H1683       H  0.63076687  0.64002856  0.03161676     0.08600
C1684       C  0.63934830  0.71310464  0.00544612     0.05000
C1685       C  0.66398751  0.73454874  0.01610619    -0.19700
C1686       C  0.69668231  0.72894631  0.00664128    -0.12000
C1687       C  0.70482550  0.70204171  0.98459627     0.13700
C1688       C  0.68008510  0.68061693  0.97394085    -0.22400
C1689       C  0.60455864  0.71967863  0.01648732    -0.05500
H1690       H  0.65789894  0.75532832  0.03285190     0.15200
C1691       C  0.73931391  0.69418418  0.97337682    -0.15700
H1692       H  0.68631162  0.65921216  0.95826816     0.09500
H1693       H  0.60341281  0.59737278  0.05838612     0.07400
H1694       H  0.59704857  0.56445579  0.02780953     0.08600
H1695       H  0.56308690  0.59001164  0.04200825     0.07600
H1696       H  0.63870864  0.67955060  0.90744381     0.02500
H1697       H  0.60569576  0.70453987  0.92460871     0.03000
H1698       H  0.59779355  0.67357292  0.89168696     0.06500
H1699       H  0.60227389  0.74266672  0.03204162     0.05500
H1700       H  0.59526681  0.69953201  0.03355248    -0.00300
H1701       H  0.58918272  0.72179182  0.99215441     0.01200
H1702       H  0.74615340  0.66988074  0.98392221     0.04800
H1703       H  0.75735354  0.71202279  0.98332646     0.06800
H1704       H  0.74094023  0.69359330  0.94357199     0.07700
C1705       C  0.97257149  0.49317868  0.67114999    -0.22000
C1706       C  0.50092801  0.53699980  0.69905404     0.10000
C1707       C  0.51708678  0.95802701  0.67112297     0.10400
C1708       C  0.51192924  0.95877547  0.63390175    -0.16900
C1709       C  0.50720783  0.54027862  0.62358293    -0.27300
C1710       C  0.96821887  0.49421639  0.63378449     0.18700
C1711       C  0.49671198  0.53481893  0.73855746     0.12700
C1712       C  0.54623471  0.94030956  0.68580771    -0.11700
H1713       H  0.52881602  0.94644258  0.61594824     0.13000
C1714       C  0.94844141  0.52177530  0.61847982    -0.22500
H1715       H  0.96200766  0.51209613  0.68789316     0.08600
C1716       C  0.01965310  0.48887382  0.74228823     0.05000
C1717       C  0.02271920  0.48966371  0.77987216    -0.19700
C1718       C  0.00243935  0.47080960  0.80228577    -0.12000
C1719       C  0.49240750  0.94606073  0.79088912     0.13700
C1720       C  0.48908490  0.94722993  0.75334972    -0.22400
C1721       C  0.04228449  0.50897641  0.71921629    -0.05500
H1722       H  0.04125387  0.50494427  0.79181055     0.15200
C1723       C  0.48031721  0.91605661  0.81015561    -0.15700
H1724       H  0.47817021  0.92695787  0.73918453     0.09500
H1725       H  0.96029926  0.54528713  0.62505222     0.07400
H1726       H  0.91571266  0.04374643  0.62000035     0.08600
H1727       H  0.94574695  0.52034472  0.58887164     0.07600
H1728       H  0.53804767  0.92049688  0.70402632     0.02500
H1729       H  0.56633441  0.53786385  0.72364094     0.03000
H1730       H  0.56128299  0.92931565  0.66401332     0.06500
H1731       H  0.06007206  0.52275542  0.73566085     0.05500
H1732       H  0.02801473  0.52669814  0.70325865    -0.00300
H1733       H  0.53106755  0.59412360  0.72944958     0.01200
H1734       H  0.96255075  0.96650821  0.81489093     0.04800
H1735       H  0.50082154  0.90399228  0.82419360     0.06800
H1736       H  0.46984751  0.89797194  0.79126617     0.07700
C1737       C  0.50873212  0.50452563  0.22883958    -0.22000
C1738       C  0.98763729  0.00170940  0.20231363     0.10000
C1739       C  0.97992016  0.97122660  0.21758055     0.10400
C1740       C  0.97898336  0.96806148  0.25508133    -0.16900
C1741       C  0.02970638  0.50984506  0.27118826    -0.27300
C1742       C  0.50764134  0.50117453  0.26639790     0.18700
C1743       C  0.02489253  0.49570925  0.15669412     0.12700
C1744       C  0.97175724  0.94228901  0.19441398    -0.11700
H1745       H  0.97239860  0.94487564  0.26695840     0.13000
C1746       C  0.53743467  0.51097053  0.28729174    -0.22500
H1747       H  0.53073983  0.51355723  0.21593522     0.08600
C1748       C  0.99677897  0.50460359  0.13759853     0.05000
C1749       C  0.99630010  0.50090001  0.10008883    -0.19700
C1750       C  0.02341319  0.48863190  0.08085608    -0.12000
C1751       C  0.52320339  0.96195874  0.10934367     0.13700
C1752       C  0.52412717  0.96695468  0.14664466    -0.22400
C1753       C  0.96728260  0.51807574  0.15688726    -0.05500
H1754       H  0.97453775  0.50799061  0.08576138     0.15200
C1755       C  0.53066088  0.92828004  0.09545568    -0.15700
H1756       H  0.53067850  0.94698365  0.16420204     0.09500
H1757       H  0.54364177  0.53665960  0.28110244     0.07400
H1758       H  0.55830202  0.49526036  0.27931383     0.08600
H1759       H  0.53403150  0.50909503  0.31679425     0.07600
H1760       H  0.99307016  0.93559413  0.17739510     0.02500
H1761       H  0.95077454  0.94821249  0.17691900     0.03000
H1762       H  0.96515170  0.92069689  0.21086357     0.06500
H1763       H  0.94722234  0.52371385  0.13798685     0.05500
H1764       H  0.97390023  0.54084414  0.17114372    -0.00300
H1765       H  0.95809254  0.50006339  0.17674625     0.01200
H1766       H  0.55617300  0.92176209  0.10212641     0.04800
H1767       H  0.52749362  0.92580876  0.06603318     0.06800
H1768       H  0.51396500  0.91052084  0.10852719     0.07700
C1769       C  0.79411522  0.78797652  0.72524723    -0.22000
C1770       C  0.78263760  0.76274513  0.70333651     0.10000
C1771       C  0.77109787  0.73375459  0.71927631     0.10400
C1772       C  0.77136380  0.73061360  0.75686387    -0.16900
C1773       C  0.78263874  0.75590002  0.77885154    -0.27300
C1774       C  0.79431582  0.78493583  0.76286790     0.18700
C1775       C  0.78334502  0.76683864  0.66369299     0.12700
C1776       C  0.75793802  0.70640997  0.69663103    -0.11700
H1777       H  0.76226203  0.70851961  0.76924904     0.13000
C1778       C  0.80772040  0.81285331  0.78453259    -0.22500
H1779       H  0.80318010  0.81010492  0.71287573     0.08600
C1780       C  0.75941409  0.78504044  0.64564109     0.05000
C1781       C  0.76030452  0.78682980  0.60791332    -0.19700
C1782       C  0.78465877  0.77088452  0.58757712    -0.12000
C1783       C  0.80894564  0.75285430  0.60610034     0.13700
C1784       C  0.80789164  0.75123499  0.64384550    -0.22400
C1785       C  0.73259809  0.80206448  0.66619305    -0.05500
H1786       H  0.74171256  0.80077729  0.59426898     0.15200
C1787       C  0.83560608  0.73437198  0.58675508    -0.15700
H1788       H  0.82612277  0.73730480  0.65810758     0.09500
H1789       H  0.79259545  0.83485960  0.78007249     0.07400
H1790       H  0.83311401  0.81801676  0.77569307     0.08600
H1791       H  0.80828486  0.80788380  0.81380983     0.07600
H1792       H  0.77729977  0.69712538  0.67831114     0.02500
H1793       H  0.73714072  0.71532647  0.68042611     0.03000
H1794       H  0.74920444  0.68580078  0.71342391     0.06500
H1795       H  0.71552604  0.81483432  0.64795730     0.05500
H1796       H  0.74324402  0.82038522  0.68464998    -0.00300
H1797       H  0.71843965  0.78405180  0.68213428     0.01200
H1798       H  0.85172816  0.75151718  0.57196041     0.04800
H1799       H  0.82476709  0.71656852  0.56782135     0.06800
H1800       H  0.85120392  0.72058323  0.60569122     0.07700
C1801       C  0.87537844  0.68300402  0.90588170    -0.22000
C1802       C  0.86330301  0.65194918  0.91383302     0.10000
C1803       C  0.82951174  0.64587521  0.91187200     0.10400
C1804       C  0.80860142  0.67078114  0.90040640    -0.16900
C1805       C  0.82094343  0.70133133  0.89048852    -0.27300
C1806       C  0.85462788  0.70779553  0.89406777     0.18700
C1807       C  0.88688968  0.62539615  0.92022931     0.12700
C1808       C  0.81581665  0.61280298  0.92056405    -0.11700
H1809       H  0.78275483  0.66596992  0.89755238     0.13000
C1810       C  0.86955770  0.74027916  0.88496647    -0.22500
H1811       H  0.90137202  0.68752961  0.90753512     0.08600
C1812       C  0.90177658  0.60909906  0.89106989     0.05000
C1813       C  0.92437486  0.58438778  0.89783517    -0.19700
C1814       C  0.93275611  0.57562202  0.93310300    -0.12000
C1815       C  0.91834492  0.59264161  0.96243762     0.13700
C1816       C  0.89514172  0.61698317  0.95551107    -0.22400
C1817       C  0.89362363  0.61767022  0.85275453    -0.05500
H1818       H  0.93535974  0.57155764  0.87531941     0.15200
C1819       C  0.92775775  0.58725785  0.00111653    -0.15700
H1820       H  0.88397396  0.63005770  0.97775964     0.09500
H1821       H  0.88771196  0.73720137  0.86293160     0.07400
H1822       H  0.88208402  0.75013002  0.90900101     0.08600
H1823       H  0.85133971  0.75849155  0.87627730     0.07600
H1824       H  0.82158958  0.60638752  0.94880234     0.02500
H1825       H  0.82668557  0.59430754  0.90227634     0.03000
H1826       H  0.78892047  0.61209966  0.91741723     0.06500
H1827       H  0.90723270  0.60229616  0.83317031     0.05500
H1828       H  0.90003887  0.64345674  0.84739314    -0.00300
H1829       H  0.86716039  0.61410241  0.84816300     0.01200
H1830       H  0.93514959  0.61080521  0.01323370     0.04800
H1831       H  0.94859886  0.57050471  0.00443428     0.06800
H1832       H  0.90651135  0.57758738  0.01639091     0.07700
C1833       C  0.70882328  0.83727525  0.91203143    -0.22000
C1834       C  0.67935172  0.82244814  0.92194011     0.10000
C1835       C  0.67677730  0.78821691  0.92126923     0.10400
C1836       C  0.70320095  0.76964501  0.90850957    -0.16900
C1837       C  0.73194636  0.78473097  0.89646152    -0.27300
C1838       C  0.73528900  0.81880204  0.89964431     0.18700
C1839       C  0.65084534  0.84354575  0.92963187     0.12700
C1840       C  0.64598864  0.77144161  0.93330503    -0.11700
H1841       H  0.70090236  0.74344664  0.90635275     0.13000
C1842       C  0.76629494  0.83640643  0.88988410    -0.22500
H1843       H  0.71086481  0.86356147  0.91293838     0.08600
C1844       C  0.64829983  0.86198722  0.96146288     0.05000
C1845       C  0.62231817  0.88398621  0.96565977    -0.19700
C1846       C  0.59867883  0.88799756  0.93870845    -0.12000
C1847       C  0.60107942  0.86872030  0.90698519     0.13700
C1848       C  0.62716335  0.84688258  0.90300626    -0.22400
C1849       C  0.67306767  0.85841223  0.99087531    -0.05500
H1850       H  0.62066577  0.89832428  0.99006599     0.15200
C1851       C  0.57726977  0.87161944  0.87639518    -0.15700
H1852       H  0.62962797  0.83276323  0.87847573     0.09500
H1853       H  0.77460649  0.85042362  0.91359698     0.07400
H1854       H  0.76170225  0.85347339  0.86736192     0.08600
H1855       H  0.78635330  0.81975848  0.88190366     0.07600
H1856       H  0.62546019  0.77840291  0.91564646     0.02500
H1857       H  0.64008392  0.77857196  0.96141269     0.03000
H1858       H  0.64865231  0.74460651  0.93230517     0.06500
H1859       H  0.66732813  0.87423624  0.01430094     0.05500
H1860       H  0.69754537  0.86525256  0.98050075    -0.00300
H1861       H  0.67368810  0.83278362  0.00024577     0.01200
H1862       H  0.58407117  0.85572298  0.85335160     0.04800
H1863       H  0.57672582  0.89705316  0.86638748     0.06800
H1864       H  0.55256526  0.86410695  0.88550027     0.07700
loop_ 
_geom_bond_atom_site_label_1 
_geom_bond_atom_site_label_2 
_geom_bond_distance 
_geom_bond_site_symmetry_2 
_ccdc_geom_bond_type 
C1            C2   1.406       .  A
C1            C6   1.405       .  A
C1          C407   1.479       .  S
C2            C3   1.402       .  A
C2            H7   1.084       .  S
C3            C4   1.398       .  A
C3          C375   1.482       .  S
C4            C5   1.400       .  A
C4            H8   1.085       .  S
C5            C6   1.401       .  A
C5          C439   1.471       .  S
C6            H9   1.083       .  S
Zn10         O15   2.005       .  S
Zn10         O26   2.007       .  S
Zn10        O951   2.000       .  S
Zn10        O480   1.949       .  S
Zn11         O16   2.014   1_556  S
Zn11         O22   2.023   1_565  S
Zn11        O484   2.022       .  S
Zn11         O14   1.954       .  S
Zn12         O20   2.004   1_556  S
Zn12         O23   2.006       .  S
Zn12        O483   2.027   1_545  S
Zn12        O946   1.951   1_455  S
Zn13         O24   2.012       .  S
Zn13         O25   2.012       .  S
Zn13        O953   2.029       .  S
Zn13         O14   1.956   1_545  S
O14        Zn476   1.948       .  S
O14        Zn944   1.952       .  S
O15          C27   1.271       .  A
O16          C28   1.274       .  A
O17        Zn478   2.013       .  S
O17          C29   1.275       .  A
O18        Zn477   2.011       .  S
O18          C27   1.273       .  A
O19        Zn942   2.008       .  S
O19          C29   1.272       .  A
O20         C960   1.271   1_455  A
O21        Zn945   2.029   1_455  S
O21          C30   1.276       .  A
O22          C31   1.273       .  A
O23          C30   1.272       .  A
O24          C31   1.273       .  A
O25          C32   1.275   1_545  A
O26         C498   1.271       .  A
C27         C247   1.468       .  S
C28         C352   1.472       .  S
C28         O952   1.274       .  A
C29         C448   1.484       .  S
C30         C279   1.489       .  S
C31         C416   1.482       .  S
C32         C320   1.493       .  S
C32         O492   1.272       .  A
C33          C34   1.407       .  A
C33          C38   1.404       .  A
C33         C288   1.479       .  S
C34          C35   1.403       .  A
C34          H39   1.084       .  S
C35          C36   1.399       .  A
C35         C215   1.482       .  S
C36          C37   1.402       .  A
C36          H40   1.084       .  S
C37          C38   1.400       .  A
C37         C256   1.475       .  S
C38          H41   1.079   1_554  S
C42          C43   1.404       .  A
C42          C47   1.405       .  A
C42         C160   1.480       .  S
C43         C510   1.400       .  A
C43          H48   1.084       .  S
C44         C509   1.400       .  A
C44         C977   1.399   1_565  A
C44        C1275   1.477       .  S
C45          C46   1.403       .  A
C45         C976   1.399       .  A
C45          H49   1.084       .  S
C46        C1445   1.403       .  A
C46         C192   1.474       .  S
C47        C1444   1.406       .  A
C47         H516   1.082       .  S
H50         C513   1.079       .  S
Zn51         O56   2.037       .  S
Zn51         O60   2.021       .  S
Zn51         O67   2.030       .  S
Zn51         O55   1.959       .  S
Zn52         O57   2.006       .  S
Zn52         O59   2.002       .  S
Zn52         O63   2.013       .  S
Zn52         O55   1.944       .  S
Zn53         O58   2.017       .  S
Zn53         O61   2.025       .  S
Zn53         O64   2.007       .  S
Zn53         O55   1.957       .  S
Zn54         O62   2.025       .  S
Zn54         O65   2.019       .  S
Zn54         O66   2.016       .  S
Zn54         O55   1.953       .  S
O56          C68   1.276       .  A
O57          C69   1.271       .  A
O58          C70   1.273       .  A
O59          C68   1.273       .  A
O60          C70   1.274       .  A
O61          C69   1.275       .  A
O62          C71   1.275       .  A
O63          C72   1.272       .  A
O64          C71   1.271       .  A
O65          C72   1.275       .  A
O66          C73   1.273       .  A
O67          C73   1.276       .  A
C68         C128   1.481       .  S
C69         C384   1.494       .  S
C70         C151   1.479       .  S
C71          C96   1.497       .  S
C72         C183   1.495       .  S
C73         C224   1.489       .  S
C74          C79   1.401       .  A
C74        C1007   1.403       .  A
C74         C119   1.473       .  S
C75        C1006   1.402       .  A
C75         C542   1.402       .  A
C75         H546   1.083       .  S
C76          C77   1.406       .  A
C76         C541   1.407       .  A
C76          C87   1.481       .  S
C77          C78   1.401   1_455  A
C77          H81   1.085       .  S
C78        C1477   1.398       .  A
C78         C311   1.481       .  S
C79        C1476   1.399       .  A
C79          H82   1.084       .  S
H80         C541   1.084       .  S
C83          C84   1.402       .  A
C83          C88   1.406       .  A
C83          H93   1.085       .  S
C84          C85   1.410       .  A
C84          C89   1.480       .  S
C85          C86   1.400       .  A
C85          C90   1.507       .  S
C86          C87   1.404       .  A
C86          H91   1.084       .  S
C87          C88   1.417       .  A
C88          C92   1.508       .  S
C89          C94   1.407       .  A
C89          C98   1.397       .  A
C90         H106   1.110       .  S
C90         H107   1.110       .  S
C90         H108   1.111       .  S
C92         H103   1.110       .  S
C92        H1036   1.111       .  S
C92        H1037   1.106   1_455  S
C94          C95   1.405       .  A
C94          C99   1.506       .  S
C95          C96   1.412       .  A
C95         H100   1.084       .  S
C96          C97   1.426       .  A
C97          C98   1.403       .  A
C97         C101   1.510       .  S
C98         H102   1.084       .  S
C99         H109   1.111       .  S
C99         H110   1.110       .  S
C99         H111   1.110       .  S
C101        H112   1.111       .  S
C101        H113   1.110       .  S
C101        H114   1.110       .  S
H104       C1024   1.110       .  S
H105       C1024   1.108       .  S
C115        C116   1.401       .  A
C115        C120   1.401       .  A
C115        H125   1.084       .  S
C116        C117   1.409       .  A
C116        C121   1.477       .  S
C117        C118   1.403       .  A
C117        C122   1.503       .  S
C118        C119   1.402       .  A
C118        H123   1.085       .  S
C119        C120   1.414       .  A
C120        C124   1.507       .  S
C121        C126   1.409       .  A
C121        C130   1.401       .  A
C122        H138   1.108       .  S
C122        H139   1.109       .  S
C122        H140   1.109       .  S
C124        H136   1.108       .  S
C124        H601   1.110       .  S
C124        H603   1.108       .  S
C126        C127   1.400       .  A
C126        C131   1.508       .  S
C127        C128   1.406       .  A
C127        H132   1.085       .  S
C128        C129   1.416       .  A
C129        C130   1.407       .  A
C129        C133   1.506       .  S
C130        H134   1.083       .  S
C131        H141   1.111       .  S
C131        H142   1.110       .  S
C131        H143   1.110       .  S
C133        H144   1.109       .  S
C133        H145   1.111       .  S
C133        H146   1.111       .  S
H135        C590   1.110       .  S
H137        C590   1.107       .  S
C147        C148   1.401       .  A
C147        C152   1.401       .  A
C147        H157   1.084       .  S
C148        C149   1.411       .  A
C148        C153   1.483       .  S
C149        C150   1.407       .  A
C149        C154   1.504       .  S
C150        C151   1.405       .  A
C150        H155   1.084       .  S
C151        C152   1.415       .  A
C152        C156   1.509       .  S
C153        C158   1.410       .  A
C153        C162   1.403       .  A
C154        H170   1.110       .  S
C154        H171   1.109       .  S
C154        H172   1.111       .  S
C156        H167   1.111       .  S
C156        H168   1.111       .  S
C156        H169   1.109       .  S
C158        C159   1.401       .  A
C158        C163   1.507       .  S
C159        C160   1.403       .  A
C159        H164   1.084       .  S
C160        C161   1.416       .  A
C161        C162   1.406       .  A
C161        C165   1.506       .  S
C162        H166   1.084       .  S
C163        H173   1.110       .  S
C163        H174   1.110       .  S
C163        H175   1.111       .  S
C165        H176   1.110       .  S
C165        H178   1.110       .  S
C165       H1109   1.107       .  S
H177       C1097   1.108       .  S
C179        C180   1.399       .  A
C179        C184   1.406       .  A
C179        H189   1.085       .  S
C180        C181   1.409       .  A
C180        C185   1.481       .  S
C181        C182   1.401       .  A
C181        C186   1.508       .  S
C182        C183   1.409       .  A
C182        H187   1.083       .  S
C183        C184   1.424       .  A
C184        C188   1.508       .  S
C185        C190   1.411       .  A
C185        C194   1.403       .  A
C186        H202   1.110       .  S
C186        H203   1.110       .  S
C186        H204   1.111       .  S
C188        H199   1.110       .  S
C188        H200   1.111       .  S
C188        H201   1.110       .  S
C190        C191   1.400       .  A
C190        C195   1.507       .  S
C191        C192   1.401       .  A
C191        H196   1.083       .  S
C192        C193   1.414       .  A
C193        C194   1.404       .  A
C193        C197   1.506       .  S
C194        H198   1.084       .  S
C195        H205   1.111       .  S
C195        H206   1.110       .  S
C195        H207   1.110       .  S
C197        H208   1.110       .  S
C197        H209   1.108   1_545  S
C197        H210   1.110       .  S
C211        C212   1.402       .  A
C211        C216   1.404       .  A
C211        H221   1.084       .  S
C212        C213   1.412       .  A
C212        C217   1.484       .  S
C213        C214   1.405       .  A
C213        C218   1.506       .  S
C214        C215   1.403       .  A
C214        H219   1.084       .  S
C215        C216   1.414       .  A
C216        C220   1.507       .  S
C217        C222   1.411       .  A
C217        C226   1.399       .  A
C218        H234   1.110       .  S
C218        H235   1.110       .  S
C218        H236   1.111       .  S
C220        H231   1.111       .  S
C220        H232   1.110       .  S
C220        H233   1.108       .  S
C222        C223   1.406       .  A
C222        C227   1.506       .  S
C223        C224   1.407       .  A
C223        H228   1.084       .  S
C224        C225   1.421       .  A
C225        C226   1.404       .  A
C225        C229   1.508       .  S
C226        H230   1.084       .  S
C227        H237   1.111       .  S
C227        H238   1.110       .  S
C227        H239   1.110       .  S
C229        H240   1.111       .  S
C229        H241   1.109       .  S
C229        H242   1.111       .  S
C243        C244   1.400       .  A
C243        C248   1.397       .  A
C243        H253   1.085   1_556  S
C244        C245   1.410       .  A
C244        C249   1.476       .  S
C245        C246   1.406       .  A
C245        C250   1.504       .  S
C246        C247   1.404       .  A
C246        H251   1.085       .  S
C247        C248   1.414       .  A
C248        C252   1.510   1_556  S
C249        C254   1.414       .  A
C249        C258   1.400       .  A
C250        H266   1.110       .  S
C250        H267   1.109       .  S
C250        H268   1.111       .  S
C252        H263   1.110       .  S
C252        H264   1.110       .  S
C252        H265   1.107       .  S
C254        C255   1.404       .  A
C254        C259   1.507       .  S
C255        C256   1.403   1_556  A
C255        H260   1.085       .  S
C256        C257   1.414       .  A
C257        C258   1.397   1_554  A
C257        C261   1.507       .  S
C258        H262   1.085       .  S
C259        H269   1.110       .  S
C259        H270   1.111       .  S
C259        H271   1.108       .  S
C261        H272   1.110       .  S
C261        H273   1.108       .  S
C261        H274   1.110       .  S
C275        C276   1.398   1_554  A
C275        C280   1.403   1_554  A
C275        H285   1.084       .  S
C276        C277   1.409       .  A
C276        C281   1.482       .  S
C277        C278   1.405       .  A
C277        C282   1.504       .  S
C278        C279   1.408       .  A
C278        H283   1.084       .  S
C279        C280   1.422       .  A
C280        C284   1.509   1_556  S
C281        C286   1.410   1_556  A
C281        C290   1.401       .  A
C282        H298   1.110       .  S
C282        H299   1.110       .  S
C282        H300   1.111       .  S
C284        H295   1.111       .  S
C284        H296   1.110       .  S
C284        H297   1.111       .  S
C286        C287   1.403       .  A
C286        C291   1.506       .  S
C287        C288   1.403       .  A
C287        H292   1.084       .  S
C288        C289   1.417   1_554  A
C289        C290   1.404       .  A
C289        C293   1.508       .  S
C290        H294   1.084       .  S
C291        H301   1.111       .  S
C291        H302   1.110       .  S
C291        H303   1.110   1_554  S
C293        H304   1.110       .  S
C293        H305   1.107       .  S
C293        H306   1.110       .  S
C307        C312   1.402       .  A
C307       C1240   1.401       .  A
C307        H317   1.085   1_565  S
C308       C1239   1.401       .  A
C308        C775   1.410   1_655  A
C308        C313   1.478       .  S
C309        C310   1.405   1_455  A
C309        C774   1.411   1_455  A
C309        C314   1.506       .  S
C310        C777   1.403       .  A
C310        H315   1.085   1_655  S
C311        C776   1.404   1_655  A
C311       C1244   1.418       .  A
C312       C1243   1.414       .  A
C312        C316   1.508   1_565  S
C313       C1250   1.407       .  A
C313        C788   1.398       .  A
C314        H330   1.110       .  S
C314        H332   1.111       .  S
C314        H797   1.110       .  S
C316        H327   1.111       .  S
C316        H329   1.108       .  S
C316        H794   1.110       .  S
C318        C319   1.401   1_545  A
C318       C1245   1.407   1_545  A
C318        C323   1.507       .  S
C319        C320   1.410       .  A
C319        H324   1.083   1_565  S
C320       C1719   1.425       .  A
C321        C322   1.406       .  A
C321       C1718   1.421   1_655  A
C321        C325   1.508       .  S
C322        C779   1.400       .  A
C322        H326   1.084       .  S
C323        H333   1.111       .  S
C323        H334   1.110       .  S
C323       H1267   1.110       .  S
C325        H337   1.110       .  S
C325        H338   1.111       .  S
C325       H1268   1.110       .  S
H328        C782   1.110       .  S
H331        C780   1.110       .  S
H335       C1255   1.110   1_455  S
H336       C1257   1.110       .  S
C339        C344   1.401       .  A
C339       C1738   1.401       .  A
C339        H349   1.085   1_655  S
C340        C341   1.411       .  A
C340       C1737   1.401       .  A
C340        C811   1.480       .  S
C341        C342   1.403       .  A
C341        C346   1.507       .  S
C342        C809   1.403       .  A
C342        H347   1.084       .  S
C343        C808   1.403   1_545  A
C343       C1276   1.417       .  A
C343        C976   1.479       .  S
C344       C1275   1.416   1_545  A
C344        C348   1.508   1_655  S
C345        C350   1.410   1_565  A
C345       C1752   1.401       .  A
C345        C806   1.478   1_565  S
C346        H362   1.110       .  S
C346        H363   1.109       .  S
C346        H364   1.111       .  S
C348        H359   1.111   1_455  S
C348        H360   1.110       .  S
C348        H361   1.107       .  S
C350        C351   1.402       .  A
C350        C355   1.506       .  S
C351        C352   1.404   1_545  A
C351        H356   1.085       .  S
C352       C1751   1.415       .  A
C353        C354   1.406       .  A
C353       C1750   1.425       .  A
C353        C357   1.509       .  S
C354       C1743   1.398       .  A
C354        H358   1.084       .  S
C355        H365   1.111       .  S
C355        H366   1.110       .  S
C355        H367   1.110       .  S
C357        H368   1.110       .  S
C357        H369   1.110       .  S
C357        H370   1.111       .  S
C371        C372   1.400       .  A
C371        C376   1.403       .  A
C371        H381   1.085       .  S
C372        C373   1.410       .  A
C372        C377   1.478       .  S
C373        C374   1.401       .  A
C373        C378   1.507       .  S
C374        C375   1.404       .  A
C374        H379   1.084       .  S
C375        C376   1.419       .  A
C376        C380   1.509       .  S
C377        C382   1.407       .  A
C377        C386   1.397       .  A
C378        H394   1.110       .  S
C378        H395   1.110       .  S
C378        H396   1.111       .  S
C380        H391   1.111       .  S
C380        H392   1.110       .  S
C380        H393   1.107       .  S
C382        C383   1.404       .  A
C382        C387   1.506       .  S
C383        C384   1.410       .  A
C383        H388   1.083       .  S
C384        C385   1.425       .  A
C385        C386   1.403       .  A
C385        C389   1.509       .  S
C386        H390   1.084       .  S
C387        H397   1.111       .  S
C387        H398   1.111       .  S
C387        H399   1.110       .  S
C389        H400   1.110       .  S
C389        H401   1.110       .  S
C389        H402   1.111       .  S
C403        C404   1.402       .  A
C403        C408   1.401       .  A
C403        H413   1.085       .  S
C404        C405   1.412       .  A
C404        C409   1.482       .  S
C405        C406   1.404       .  A
C405        C410   1.506       .  S
C406        C407   1.404       .  A
C406        H411   1.084       .  S
C407        C408   1.415       .  A
C408        C412   1.508       .  S
C409        C414   1.411       .  A
C409        C418   1.402       .  A
C410        H426   1.110       .  S
C410        H427   1.110       .  S
C410        H428   1.111       .  S
C412        H423   1.111       .  S
C412        H424   1.110       .  S
C412        H425   1.108       .  S
C414        C415   1.402       .  A
C414        C419   1.508       .  S
C415        C416   1.405       .  A
C415        H420   1.085       .  S
C416        C417   1.417       .  A
C417        C418   1.406       .  A
C417        C421   1.507   1_556  S
C418        H422   1.084       .  S
C419        H429   1.111       .  S
C419        H430   1.109       .  S
C419        H431   1.110       .  S
C421        H432   1.111       .  S
C421        H433   1.110       .  S
C421        H434   1.110       .  S
C435        C436   1.399       .  A
C435        C440   1.396       .  A
C435        H445   1.085       .  S
C436        C437   1.409       .  A
C436        C441   1.476       .  S
C437        C438   1.404       .  A
C437        C442   1.502       .  S
C438        C439   1.403       .  A
C438        H443   1.084       .  S
C439        C440   1.413       .  A
C440        C444   1.505       .  S
C441        C446   1.406       .  A
C441        C450   1.399       .  A
C442        H458   1.110       .  S
C442        H459   1.109       .  S
C442        H460   1.108       .  S
C444        H455   1.108       .  S
C444        H456   1.110       .  S
C444        H457   1.108       .  S
C446        C447   1.402       .  A
C446        C451   1.505       .  S
C447        C448   1.408       .  A
C447        H452   1.084       .  S
C448        C449   1.420       .  A
C449        C450   1.402       .  A
C449        C453   1.509       .  S
C450        H454   1.085       .  S
C451        H461   1.111   1_556  S
C451        H462   1.108       .  S
C451        H463   1.110       .  S
C453        H464   1.111       .  S
C453        H465   1.110       .  S
C453        H466   1.110       .  S
C467        C468   1.403       .  A
C467        C472   1.402       .  A
C467        C873   1.473       .  S
C468        C469   1.402       .  A
C468        H473   1.084       .  S
C469        C470   1.403       .  A
C469        C841   1.485       .  S
C470        C471   1.404       .  A
C470        H474   1.084       .  S
C471        C472   1.401       .  A
C471        C905   1.474       .  S
C472        H475   1.084       .  S
Zn476       O481   2.019       .  S
Zn476      O1417   2.011       .  S
Zn476       O492   2.009       .  S
Zn477       O482   2.018   1_556  S
Zn477       O488   2.024       .  S
Zn477       O480   1.955       .  S
Zn478       O486   2.017   1_556  S
Zn478       O489   2.023       .  S
Zn478      O1412   1.957       .  S
Zn479      O1419   2.014       .  S
Zn479       O490   2.014       .  S
Zn479       O491   2.024       .  S
Zn479       O480   1.952       .  S
O480      Zn1410   1.959       .  S
O481        C493   1.274       .  A
O482        C494   1.274       .  A
O483        C495   1.274       .  A
O484        C493   1.273       .  A
O485      Zn1408   2.008   1_455  S
O485        C495   1.271       .  A
O486       C1426   1.272       .  A
O487      Zn1411   2.030       .  S
O487        C496   1.274       .  A
O488        C497   1.273       .  A
O489        C496   1.273       .  A
O490        C497   1.274       .  A
O491        C498   1.275       .  A
C493        C713   1.492       .  S
C494        C818   1.475       .  S
C494       O1418   1.274       .  A
C495        C914   1.488       .  S
C496        C745   1.476       .  S
C497        C882   1.491       .  S
C498        C786   1.497       .  S
C499        C500   1.409       .  A
C499        C504   1.404       .  A
C499        C754   1.485   1_554  S
C500        C501   1.405       .  A
C500        H505   1.083       .  S
C501        C502   1.400       .  A
C501        C681   1.484       .  S
C502        C503   1.401       .  A
C502        H506   1.084       .  S
C503        C504   1.401       .  A
C503        C722   1.473       .  S
C504        H507   1.080   1_554  S
C508        C509   1.404       .  A
C508        C513   1.401       .  A
C508        C626   1.476   1_655  S
C509        H514   1.084   1_655  S
C510       C1443   1.401       .  A
C510       C1741   1.481       .  S
C511       C1442   1.400       .  A
C511        C512   1.402       .  A
C511        H515   1.084       .  S
C512        C979   1.400       .  A
C512        C658   1.472       .  S
C513        C978   1.398   1_565  A
Zn517       O522   2.011       .  S
Zn517       O526   2.000       .  S
Zn517       O533   2.018       .  S
Zn517       O521   1.949       .  S
Zn518       O523   2.012       .  S
Zn518       O525   1.997       .  S
Zn518       O529   2.008       .  S
Zn518       O521   1.947       .  S
Zn519       O524   2.028       .  S
Zn519       O527   2.030       .  S
Zn519       O530   2.006       .  S
Zn519       O521   1.957       .  S
Zn520       O528   2.020       .  S
Zn520       O531   2.016       .  S
Zn520       O532   2.029       .  S
Zn520       O521   1.954       .  S
O522        C534   1.271       .  A
O523        C535   1.271       .  A
O524        C536   1.275       .  A
O525        C534   1.273       .  A
O526        C536   1.271       .  A
O527        C535   1.275       .  A
O528        C537   1.274       .  A
O529        C538   1.271       .  A
O530        C537   1.273       .  A
O531        C538   1.274       .  A
O532        C539   1.274       .  A
O533        C539   1.274       .  A
C534        C594   1.489       .  S
C535        C850   1.500       .  S
C536        C617   1.491       .  S
C537        C562   1.477       .  S
C538        C649   1.488       .  S
C539        C690   1.499       .  S
C540       C1473   1.401       .  A
C540        C545   1.405       .  A
C540        C585   1.473       .  S
C541       C1472   1.404   1_455  A
C542        C543   1.401   1_655  A
C542        C553   1.472   1_655  S
C543        C544   1.399   1_455  A
C543        H547   1.084       .  S
C544       C1011   1.400       .  A
C544        C777   1.476       .  S
C545       C1010   1.400       .  A
C545        H548   1.084       .  S
C549        C550   1.400       .  A
C549        C554   1.401       .  A
C549        H559   1.084       .  S
C550        C551   1.410       .  A
C550        C555   1.477       .  S
C551        C552   1.403       .  A
C551        C556   1.504       .  S
C552        C553   1.402       .  A
C552        H557   1.085       .  S
C553        C554   1.414       .  A
C554        C558   1.507   1_455  S
C555        C560   1.409       .  A
C555        C564   1.399       .  A
C556        H572   1.110       .  S
C556        H573   1.108       .  S
C556        H574   1.108       .  S
C558        H569   1.107       .  S
C558       H1502   1.110       .  S
C558       H1503   1.108       .  S
C560        C561   1.404       .  A
C560        C565   1.503       .  S
C561        C562   1.405       .  A
C561        H566   1.084       .  S
C562        C563   1.417       .  A
C563        C564   1.401       .  A
C563        C567   1.509       .  S
C564        H568   1.084       .  S
C565        H575   1.110       .  S
C565        H576   1.108       .  S
C565        H577   1.109       .  S
C567        H578   1.111       .  S
C567        H579   1.109       .  S
C567        H580   1.111       .  S
H570       C1490   1.110       .  S
H571       C1490   1.106       .  S
C581        C582   1.399       .  A
C581        C586   1.398       .  A
C581        H591   1.085       .  S
C582        C583   1.409       .  A
C582        C587   1.472       .  S
C583        C584   1.401       .  A
C583        C588   1.506       .  S
C584        C585   1.404       .  A
C584        H589   1.084       .  S
C585        C586   1.415       .  A
C586        C590   1.508       .  S
C587        C592   1.406       .  A
C587        C596   1.399       .  A
C588        H604   1.110       .  S
C588        H605   1.110       .  S
C588        H606   1.111       .  S
C590        H602   1.111       .  S
C592        C593   1.397       .  A
C592        C597   1.509       .  S
C593        C594   1.409       .  A
C593        H598   1.083       .  S
C594        C595   1.423       .  A
C595        C596   1.406       .  A
C595        C599   1.508       .  S
C596        H600   1.084       .  S
C597        H607   1.111       .  S
C597        H608   1.110       .  S
C597        H609   1.109       .  S
C599        H610   1.110       .  S
C599        H611   1.110       .  S
C599        H612   1.111       .  S
C613        C614   1.397       .  A
C613        C618   1.401       .  A
C613        H623   1.084       .  S
C614        C615   1.408       .  A
C614        C619   1.477       .  S
C615        C616   1.405       .  A
C615        C620   1.507       .  S
C616        C617   1.410       .  A
C616        H621   1.083       .  S
C617        C618   1.423       .  A
C618        C622   1.510       .  S
C619        C624   1.411       .  A
C619        C628   1.400       .  A
C620        H636   1.110       .  S
C620        H637   1.111       .  S
C620        H638   1.110       .  S
C622        H633   1.111       .  S
C622        H634   1.110       .  S
C622        H635   1.110       .  S
C624        C625   1.402       .  A
C624        C629   1.506       .  S
C625        C626   1.404       .  A
C625        H630   1.084       .  S
C626        C627   1.416       .  A
C627        C628   1.399       .  A
C627        C631   1.508   1_455  S
C628        H632   1.085       .  S
C629        H639   1.111       .  S
C629        H640   1.109       .  S
C629        H641   1.111       .  S
C631        H642   1.111   1_655  S
C631       H1575   1.108       .  S
C631        H644   1.110       .  S
H643       C1563   1.106       .  S
C645        C646   1.401       .  A
C645        C650   1.407       .  A
C645        H655   1.084       .  S
C646        C647   1.412       .  A
C646        C651   1.482       .  S
C647        C648   1.400       .  A
C647        C652   1.509       .  S
C648        C649   1.405       .  A
C648        H653   1.084       .  S
C649        C650   1.422       .  A
C650        C654   1.508       .  S
C651        C656   1.413       .  A
C651        C660   1.402       .  A
C652        H668   1.110       .  S
C652        H669   1.110       .  S
C652        H670   1.111       .  S
C654        H665   1.110       .  S
C654        H666   1.111       .  S
C654        H667   1.110       .  S
C656        C657   1.402       .  A
C656        C661   1.507       .  S
C657        C658   1.401       .  A
C657        H662   1.084       .  S
C658        C659   1.413       .  A
C659        C660   1.401       .  A
C659        C663   1.507       .  S
C660        H664   1.085       .  S
C661        H671   1.111       .  S
C661        H672   1.110       .  S
C661        H673   1.110       .  S
C663        H674   1.110       .  S
C663        H675   1.107       .  S
C663        H676   1.110       .  S
C677        C678   1.403       .  A
C677        C682   1.406       .  A
C677        H687   1.084       .  S
C678        C679   1.412       .  A
C678        C683   1.485       .  S
C679        C680   1.404       .  A
C679        C684   1.507       .  S
C680        C681   1.404       .  A
C680        H685   1.085       .  S
C681        C682   1.414       .  A
C682        C686   1.507       .  S
C683        C688   1.408       .  A
C683        C692   1.399       .  A
C684        H700   1.109       .  S
C684        H701   1.111       .  S
C684        H702   1.111       .  S
C686        H697   1.111       .  S
C686        H698   1.108       .  S
C686        H699   1.111       .  S
C688        C689   1.406       .  A
C688        C693   1.507       .  S
C689        C690   1.412       .  A
C689        H694   1.083       .  S
C690        C691   1.424       .  A
C691        C692   1.406       .  A
C691        C695   1.508       .  S
C692        H696   1.083       .  S
C693        H703   1.111       .  S
C693        H704   1.109       .  S
C693        H705   1.111       .  S
C695        H706   1.110       .  S
C695        H707   1.111       .  S
C695        H708   1.111       .  S
C709        C710   1.399   1_554  A
C709        C714   1.404   1_554  A
C709        H719   1.085       .  S
C710        C711   1.408       .  A
C710        C715   1.481       .  S
C711        C712   1.405       .  A
C711        C716   1.506       .  S
C712        C713   1.410       .  A
C712        H717   1.084       .  S
C713        C714   1.422       .  A
C714        C718   1.509   1_556  S
C715        C720   1.415       .  A
C715        C724   1.403       .  A
C716        H732   1.110       .  S
C716        H733   1.110       .  S
C716        H734   1.111       .  S
C718        H729   1.111       .  S
C718        H730   1.110       .  S
C718        H731   1.110       .  S
C720        C721   1.401   1_556  A
C720        C725   1.507       .  S
C721        C722   1.400       .  A
C721        H726   1.085       .  S
C722        C723   1.413   1_554  A
C723        C724   1.404       .  A
C723        C727   1.507       .  S
C724        H728   1.084       .  S
C725        H735   1.111       .  S
C725        H736   1.110   1_556  S
C725        H737   1.108       .  S
C727        H738   1.110   1_556  S
C727        H739   1.108       .  S
C727        H740   1.110       .  S
C741        C742   1.402       .  A
C741        C746   1.402       .  A
C741        H751   1.085       .  S
C742        C743   1.414       .  A
C742        C747   1.488       .  S
C743        C744   1.409       .  A
C743        C748   1.506       .  S
C744        C745   1.404       .  A
C744        H749   1.084       .  S
C745        C746   1.415       .  A
C746        C750   1.509       .  S
C747        C752   1.414       .  A
C747        C756   1.403       .  A
C748        H764   1.109       .  S
C748        H765   1.111       .  S
C748        H766   1.110       .  S
C750        H761   1.111       .  S
C750        H762   1.110   1_556  S
C750        H763   1.108       .  S
C752        C753   1.405       .  A
C752        C757   1.506       .  S
C753        C754   1.405       .  A
C753        H758   1.084       .  S
C754        C755   1.416   1_556  A
C755        C756   1.403   1_554  A
C755        C759   1.508       .  S
C756        H760   1.085   1_556  S
C757        H767   1.111       .  S
C757        H768   1.109       .  S
C757        H769   1.110       .  S
C759        H770   1.110       .  S
C759        H771   1.108       .  S
C759        H772   1.111       .  S
C773       C1706   1.401       .  A
C773        C778   1.404       .  A
C773        H783   1.084       .  S
C774       C1705   1.402       .  A
C774        C779   1.482       .  S
C775        C776   1.401       .  A
C775        C780   1.507       .  S
C776        H781   1.084       .  S
C777       C1710   1.414       .  A
C778       C1709   1.416       .  A
C778        C782   1.508       .  S
C779       C1716   1.410   1_655  A
C780        H796   1.110       .  S
C780        H798   1.111       .  S
C782        H793   1.111       .  S
C782        H795   1.108       .  S
C784       C1711   1.407       .  A
C784        C785   1.403       .  A
C784        C789   1.506       .  S
C785        C786   1.410       .  A
C785        H790   1.083       .  S
C786       C1253   1.426       .  A
C787       C1252   1.425       .  A
C787        C788   1.404       .  A
C787        C791   1.509   1_545  S
C788        H792   1.084   1_545  S
C789        H799   1.110       .  S
C789        H800   1.110       .  S
C789       H1733   1.110       .  S
C791       H1734   1.110       .  S
C791        H803   1.110   1_655  S
C791        H804   1.111       .  S
H801       C1721   1.111       .  S
H802       C1723   1.110       .  S
C805       C1272   1.401       .  A
C805        C810   1.403       .  A
C805        H815   1.085       .  S
C806       C1271   1.400       .  A
C806        C807   1.410   1_545  A
C807        C808   1.403       .  A
C807        C812   1.506       .  S
C808        H813   1.084       .  S
C809       C1742   1.416       .  A
C809       C1442   1.479       .  S
C810       C1741   1.416       .  A
C810        C814   1.508       .  S
C811        C816   1.410       .  A
C811       C1286   1.400       .  A
C812        H828   1.110       .  S
C812        H829   1.111       .  S
C812        H830   1.110       .  S
C814        H825   1.110       .  S
C814        H826   1.111       .  S
C814        H827   1.107       .  S
C816        C817   1.404       .  A
C816        C821   1.506       .  S
C817        C818   1.403       .  A
C817        H822   1.084       .  S
C818       C1285   1.418       .  A
C819       C1284   1.422   1_465  A
C819        C820   1.402       .  A
C819        C823   1.509       .  S
C820       C1277   1.399   1_465  A
C820        H824   1.085       .  S
C821        H831   1.111       .  S
C821        H832   1.110       .  S
C821        H833   1.110       .  S
C823        H834   1.109       .  S
C823        H835   1.111       .  S
C823        H836   1.111       .  S
C837        C838   1.401       .  A
C837        C842   1.404       .  A
C837        H847   1.084       .  S
C838        C839   1.410       .  A
C838        C843   1.483       .  S
C839        C840   1.405       .  A
C839        C844   1.506       .  S
C840        C841   1.406       .  A
C840        H845   1.084       .  S
C841        C842   1.418       .  A
C842        C846   1.509       .  S
C843        C848   1.408       .  A
C843        C852   1.398       .  A
C844        H860   1.110       .  S
C844        H861   1.110       .  S
C844        H862   1.111       .  S
C846        H857   1.110       .  S
C846        H858   1.111       .  S
C846        H859   1.106       .  S
C848        C849   1.405       .  A
C848        C853   1.507       .  S
C849        C850   1.411       .  A
C849        H854   1.084       .  S
C850        C851   1.426       .  A
C851        C852   1.406       .  A
C851        C855   1.509       .  S
C852        H856   1.085       .  S
C853        H863   1.111       .  S
C853        H864   1.110       .  S
C853        H865   1.110       .  S
C855        H866   1.110       .  S
C855        H867   1.110       .  S
C855        H868   1.111       .  S
C869        C870   1.402       .  A
C869        C874   1.402       .  A
C869        H879   1.084       .  S
C870        C871   1.413       .  A
C870        C875   1.483       .  S
C871        C872   1.403       .  A
C871        C876   1.506       .  S
C872        C873   1.401       .  A
C872        H877   1.084       .  S
C873        C874   1.414       .  A
C874        C878   1.507       .  S
C875        C880   1.411       .  A
C875        C884   1.401       .  A
C876        H892   1.109       .  S
C876        H893   1.111       .  S
C876        H894   1.110       .  S
C878        H889   1.110       .  S
C878        H890   1.106       .  S
C878        H891   1.107       .  S
C880        C881   1.400       .  A
C880        C885   1.509       .  S
C881        C882   1.407       .  A
C881        H886   1.084       .  S
C882        C883   1.422       .  A
C883        C884   1.408       .  A
C883        C887   1.507   1_556  S
C884        H888   1.084       .  S
C885        H895   1.111       .  S
C885        H896   1.110       .  S
C885        H897   1.110       .  S
C887        H898   1.111       .  S
C887        H899   1.111       .  S
C887        H900   1.109       .  S
C901        C902   1.401       .  A
C901        C906   1.401       .  A
C901        H911   1.084       .  S
C902        C903   1.412       .  A
C902        C907   1.480       .  S
C903        C904   1.405       .  A
C903        C908   1.506       .  S
C904        C905   1.402       .  A
C904        H909   1.084       .  S
C905        C906   1.414       .  A
C906        C910   1.508       .  S
C907        C912   1.409       .  A
C907        C916   1.399       .  A
C908        H924   1.110       .  S
C908        H925   1.110       .  S
C908        H926   1.111       .  S
C910        H921   1.110       .  S
C910        H922   1.111       .  S
C910        H923   1.108       .  S
C912        C913   1.406       .  A
C912        C917   1.506       .  S
C913        C914   1.409       .  A
C913        H918   1.085       .  S
C914        C915   1.421       .  A
C915        C916   1.402       .  A
C915        C919   1.509       .  S
C916        H920   1.085       .  S
C917        H927   1.111   1_556  S
C917        H928   1.110       .  S
C917        H929   1.110       .  S
C919        H930   1.111       .  S
C919        H931   1.111       .  S
C919        H932   1.109       .  S
C933        C934   1.403       .  A
C933        C938   1.400       .  A
C933       C1339   1.472       .  S
C934        C935   1.402       .  A
C934        H939   1.084       .  S
C935        C936   1.404       .  A
C935       C1307   1.484       .  S
C936        C937   1.405       .  A
C936        H940   1.084       .  S
C937        C938   1.400       .  A
C937       C1371   1.472       .  S
C938        H941   1.084       .  S
Zn942       O947   2.022   1_455  S
Zn942       O958   2.017       .  S
Zn942      O1412   1.957       .  S
Zn943       O948   2.008   1_556  S
Zn943      O1416   2.008   1_545  S
Zn943       O954   2.026       .  S
Zn943       O946   1.955       .  S
Zn944      O1415   2.029       .  S
Zn944       O952   2.014   1_556  S
Zn944       O955   2.014   1_565  S
Zn945       O956   2.014       .  S
Zn945       O957   2.023       .  S
Zn945       O946   1.952       .  S
O946      Zn1408   1.949   1_545  S
O947        C959   1.274       .  A
O948        C960   1.274       .  A
O949      Zn1410   2.029       .  S
O949        C961   1.274       .  A
O950      Zn1409   2.026       .  S
O950        C959   1.274       .  A
O951        C961   1.271       .  A
O953        C962   1.274       .  A
O954        C963   1.274       .  A
O955        C962   1.273       .  A
O956        C963   1.274       .  A
O957        C964   1.276       .  A
O958       C1430   1.273       .  A
C959       C1179   1.493       .  S
C960       C1284   1.487       .  S
C961       C1380   1.486       .  S
C962       C1211   1.474       .  S
C963       C1348   1.485       .  S
C964       C1252   1.494       .  S
C964       O1424   1.272       .  A
C965        C966   1.402       .  A
C965        C970   1.404       .  A
C965       C1220   1.478       .  S
C966        C967   1.396       .  A
C966        H971   1.084       .  S
C967        C968   1.401       .  A
C967       C1147   1.475       .  S
C968        C969   1.405       .  A
C968        H972   1.083       .  S
C969        C970   1.405       .  A
C969       C1188   1.477       .  S
C970        H973   1.078   1_554  S
C974        C975   1.404       .  A
C974        C979   1.402       .  A
C974       C1092   1.475       .  S
C975       C1442   1.400       .  A
C975        H980   1.084       .  S
C976       C1441   1.400   1_545  A
C977        C978   1.399       .  A
C977        H981   1.085       .  S
C978       C1124   1.467       .  S
C979       H1448   1.082       .  S
H982       C1445   1.080       .  S
Zn983       O988   2.011       .  S
Zn983       O992   1.998       .  S
Zn983       O999   2.015       .  S
Zn983       O987   1.948       .  S
Zn984       O989   2.021       .  S
Zn984       O991   2.019       .  S
Zn984       O995   2.019       .  S
Zn984       O987   1.956       .  S
Zn985       O990   2.022       .  S
Zn985       O993   2.028       .  S
Zn985       O996   2.009       .  S
Zn985       O987   1.953       .  S
Zn986       O994   2.006       .  S
Zn986       O997   1.992       .  S
Zn986       O998   2.016       .  S
Zn986       O987   1.952       .  S
O988       C1000   1.272       .  A
O989       C1001   1.273       .  A
O990       C1002   1.276       .  A
O991       C1000   1.275       .  A
O992       C1002   1.271       .  A
O993       C1001   1.275       .  A
O994       C1003   1.272       .  A
O995       C1004   1.273       .  A
O996       C1003   1.272       .  A
O997       C1004   1.272       .  A
O998       C1005   1.272       .  A
O999       C1005   1.273       .  A
C1000      C1060   1.484       .  S
C1001      C1316   1.498       .  S
C1002      C1083   1.492       .  S
C1003      C1028   1.475       .  S
C1004      C1115   1.481       .  S
C1005      C1156   1.488       .  S
C1006      C1011   1.404       .  A
C1006      C1051   1.473       .  S
C1007      C1474   1.406       .  A
C1007      H1478   1.084       .  S
C1008      C1473   1.397       .  A
C1008      C1009   1.400       .  A
C1008      C1019   1.465   1_565  S
C1009      C1010   1.397       .  A
C1009      H1013   1.084   1_565  S
C1010      C1243   1.472       .  S
C1011      H1014   1.084       .  S
H1012      C1473   1.083       .  S
C1015      C1016   1.400       .  A
C1015      C1020   1.398       .  A
C1015      H1025   1.085       .  S
C1016      C1017   1.410       .  A
C1016      C1021   1.471       .  S
C1017      C1018   1.401       .  A
C1017      C1022   1.505       .  S
C1018      C1019   1.401       .  A
C1018      H1023   1.084   1_545  S
C1019      C1020   1.413       .  A
C1020      C1024   1.507       .  S
C1021      C1026   1.407       .  A
C1021      C1030   1.398       .  A
C1022      H1038   1.109       .  S
C1022      H1039   1.108       .  S
C1022      H1040   1.110   1_545  S
C1024      H1035   1.107       .  S
C1026      C1027   1.404       .  A
C1026      C1031   1.506       .  S
C1027      C1028   1.407       .  A
C1027      H1032   1.084       .  S
C1028      C1029   1.416       .  A
C1029      C1030   1.398       .  A
C1029      C1033   1.509       .  S
C1030      H1034   1.085       .  S
C1031      H1041   1.111       .  S
C1031      H1042   1.109       .  S
C1031      H1043   1.109       .  S
C1033      H1044   1.111       .  S
C1033      H1045   1.109       .  S
C1033      H1046   1.111       .  S
C1047      C1048   1.401       .  A
C1047      C1052   1.402       .  A
C1047      H1057   1.085       .  S
C1048      C1049   1.411       .  A
C1048      C1053   1.479       .  S
C1049      C1050   1.403       .  A
C1049      C1054   1.506       .  S
C1050      C1051   1.402       .  A
C1050      H1055   1.084       .  S
C1051      C1052   1.414       .  A
C1052      C1056   1.507       .  S
C1053      C1058   1.410       .  A
C1053      C1062   1.400       .  A
C1054      H1070   1.110       .  S
C1054      H1071   1.110       .  S
C1054      H1072   1.111       .  S
C1056      H1533   1.110       .  S
C1056      H1068   1.111       .  S
C1056      H1535   1.109       .  S
C1058      C1059   1.400       .  A
C1058      C1063   1.508       .  S
C1059      C1060   1.405       .  A
C1059      H1064   1.084       .  S
C1060      C1061   1.420       .  A
C1061      C1062   1.407       .  A
C1061      C1065   1.508       .  S
C1062      H1066   1.084       .  S
C1063      H1073   1.110       .  S
C1063      H1074   1.110       .  S
C1063      H1075   1.110       .  S
C1065      H1076   1.109       .  S
C1065      H1077   1.111       .  S
C1065      H1078   1.111       .  S
H1067      C1522   1.110       .  S
H1069      C1522   1.108       .  S
C1079      C1080   1.399       .  A
C1079      C1084   1.402       .  A
C1079      H1089   1.084       .  S
C1080      C1081   1.410       .  A
C1080      C1085   1.481       .  S
C1081      C1082   1.403       .  A
C1081      C1086   1.506       .  S
C1082      C1083   1.409       .  A
C1082      H1087   1.083       .  S
C1083      C1084   1.424       .  A
C1084      C1088   1.510       .  S
C1085      C1090   1.413       .  A
C1085      C1094   1.402       .  A
C1086      H1102   1.109       .  S
C1086      H1103   1.107       .  S
C1086      H1104   1.111       .  S
C1088      H1099   1.111       .  S
C1088      H1100   1.110       .  S
C1088      H1101   1.111       .  S
C1090      C1091   1.403       .  A
C1090      C1095   1.506       .  S
C1091      C1092   1.402       .  A
C1091      H1096   1.084       .  S
C1092      C1093   1.414       .  A
C1093      C1094   1.401       .  A
C1093      C1097   1.508       .  S
C1094      H1098   1.084       .  S
C1095      H1105   1.111       .  S
C1095      H1106   1.109       .  S
C1095      H1107   1.110       .  S
C1097      H1108   1.110       .  S
C1097      H1110   1.111       .  S
C1111      C1112   1.402       .  A
C1111      C1116   1.405       .  A
C1111      H1121   1.084       .  S
C1112      C1113   1.410       .  A
C1112      C1117   1.476       .  S
C1113      C1114   1.396       .  A
C1113      C1118   1.509       .  S
C1114      C1115   1.406       .  A
C1114      H1119   1.084       .  S
C1115      C1116   1.418       .  A
C1116      C1120   1.507       .  S
C1117      C1122   1.412       .  A
C1117      C1126   1.402       .  A
C1118      H1134   1.109       .  S
C1118      H1135   1.110       .  S
C1118      H1136   1.111       .  S
C1120      H1131   1.110       .  S
C1120      H1132   1.111       .  S
C1120      H1133   1.110       .  S
C1122      C1123   1.400       .  A
C1122      C1127   1.506       .  S
C1123      C1124   1.400       .  A
C1123      H1128   1.085       .  S
C1124      C1125   1.412       .  A
C1125      C1126   1.399       .  A
C1125      C1129   1.507   1_545  S
C1126      H1130   1.086       .  S
C1127      H1137   1.110       .  S
C1127      H1138   1.110       .  S
C1127      H1139   1.110       .  S
C1129      H1140   1.110       .  S
C1129      H1141   1.108       .  S
C1129      H1142   1.110       .  S
C1143      C1144   1.402       .  A
C1143      C1148   1.404       .  A
C1143      H1153   1.084       .  S
C1144      C1145   1.412       .  A
C1144      C1149   1.480       .  S
C1145      C1146   1.404       .  A
C1145      C1150   1.506       .  S
C1146      C1147   1.401       .  A
C1146      H1151   1.084       .  S
C1147      C1148   1.412       .  A
C1148      C1152   1.506       .  S
C1149      C1154   1.408       .  A
C1149      C1158   1.400       .  A
C1150      H1166   1.111       .  S
C1150      H1167   1.110       .  S
C1150      H1168   1.111       .  S
C1152      H1163   1.111       .  S
C1152      H1164   1.111       .  S
C1152      H1165   1.110       .  S
C1154      C1155   1.402       .  A
C1154      C1159   1.507       .  S
C1155      C1156   1.407       .  A
C1155      H1160   1.083       .  S
C1156      C1157   1.421       .  A
C1157      C1158   1.406       .  A
C1157      C1161   1.508       .  S
C1158      H1162   1.084       .  S
C1159      H1169   1.110       .  S
C1159      H1170   1.110       .  S
C1159      H1171   1.110       .  S
C1161      H1172   1.111       .  S
C1161      H1173   1.109       .  S
C1161      H1174   1.111       .  S
C1175      C1176   1.400   1_554  A
C1175      C1180   1.406   1_554  A
C1175      H1185   1.084       .  S
C1176      C1177   1.409       .  A
C1176      C1181   1.484       .  S
C1177      C1178   1.406       .  A
C1177      C1182   1.506       .  S
C1178      C1179   1.409       .  A
C1178      H1183   1.084       .  S
C1179      C1180   1.421       .  A
C1180      C1184   1.508   1_556  S
C1181      C1186   1.415       .  A
C1181      C1190   1.403       .  A
C1182      H1198   1.110       .  S
C1182      H1199   1.110       .  S
C1182      H1200   1.111       .  S
C1184      H1195   1.111       .  S
C1184      H1196   1.110       .  S
C1184      H1197   1.111       .  S
C1186      C1187   1.403   1_556  A
C1186      C1191   1.507       .  S
C1187      C1188   1.402       .  A
C1187      H1192   1.085       .  S
C1188      C1189   1.414   1_554  A
C1189      C1190   1.405       .  A
C1189      C1193   1.507       .  S
C1190      H1194   1.084       .  S
C1191      H1201   1.111       .  S
C1191      H1202   1.110   1_556  S
C1191      H1203   1.108       .  S
C1193      H1204   1.110   1_556  S
C1193      H1205   1.108   1_556  S
C1193      H1206   1.110       .  S
C1207      C1208   1.401       .  A
C1207      C1212   1.401       .  A
C1207      H1217   1.085   1_556  S
C1208      C1209   1.410       .  A
C1208      C1213   1.481       .  S
C1209      C1210   1.407       .  A
C1209      C1214   1.505       .  S
C1210      C1211   1.404       .  A
C1210      H1215   1.084       .  S
C1211      C1212   1.416       .  A
C1212      C1216   1.509   1_556  S
C1213      C1218   1.412       .  A
C1213      C1222   1.401       .  A
C1214      H1230   1.110       .  S
C1214      H1231   1.110       .  S
C1214      H1232   1.110       .  S
C1216      H1227   1.111       .  S
C1216      H1228   1.110       .  S
C1216      H1229   1.108       .  S
C1218      C1219   1.405       .  A
C1218      C1223   1.506       .  S
C1219      C1220   1.403   1_556  A
C1219      H1224   1.084       .  S
C1220      C1221   1.415       .  A
C1221      C1222   1.401   1_554  A
C1221      C1225   1.509       .  S
C1222      H1226   1.084       .  S
C1223      H1233   1.111       .  S
C1223      H1234   1.111       .  S
C1223      H1235   1.109       .  S
C1225      H1236   1.110       .  S
C1225      H1237   1.109       .  S
C1225      H1238   1.109       .  S
C1239      C1244   1.403       .  A
C1239      H1249   1.085       .  S
C1240      C1707   1.410       .  A
C1240      C1245   1.477       .  S
C1241      C1706   1.410       .  A
C1241      C1242   1.402       .  A
C1241      C1246   1.506       .  S
C1242      C1709   1.404       .  A
C1242      H1247   1.084       .  S
C1243      C1708   1.402       .  A
C1244      C1248   1.508       .  S
C1245      C1720   1.398       .  A
C1246      H1262   1.110       .  S
C1246      H1729   1.110       .  S
C1246      H1264   1.111       .  S
C1248      H1259   1.110       .  S
C1248      H1726   1.111       .  S
C1248      H1261   1.108       .  S
C1250      C1251   1.402       .  A
C1250      C1255   1.507       .  S
C1251      C1252   1.410       .  A
C1251      H1256   1.083       .  S
C1253      C1254   1.405       .  A
C1253      C1257   1.509       .  S
C1254      C1711   1.398       .  A
C1254      H1258   1.085       .  S
C1255      H1265   1.110       .  S
C1255      H1266   1.110       .  S
C1257      H1269   1.110       .  S
C1257      H1270   1.111       .  S
H1260      C1714   1.110       .  S
H1263      C1712   1.110       .  S
C1271      C1276   1.403       .  A
C1271      H1281   1.085       .  S
C1272      C1273   1.410       .  A
C1272      C1743   1.481       .  S
C1273      C1274   1.404       .  A
C1273      C1278   1.506       .  S
C1274      C1741   1.404       .  A
C1274      H1279   1.085       .  S
C1275      C1740   1.403       .  A
C1276      C1280   1.508       .  S
C1277      C1282   1.409       .  A
C1277      C1738   1.478       .  S
C1278      H1294   1.110       .  S
C1278      H1295   1.110   1_455  S
C1278      H1296   1.111       .  S
C1280      H1291   1.110       .  S
C1280      H1292   1.110       .  S
C1280      H1293   1.107       .  S
C1282      C1283   1.401       .  A
C1282      C1287   1.507       .  S
C1283      C1284   1.408       .  A
C1283      H1288   1.084       .  S
C1285      C1286   1.403       .  A
C1285      C1289   1.509       .  S
C1286      H1290   1.085       .  S
C1287      H1297   1.111       .  S
C1287      H1298   1.109       .  S
C1287      H1299   1.110       .  S
C1289      H1300   1.110       .  S
C1289      H1301   1.107       .  S
C1289      H1302   1.111       .  S
C1303      C1304   1.401       .  A
C1303      C1308   1.404       .  A
C1303      H1313   1.085       .  S
C1304      C1305   1.411       .  A
C1304      C1309   1.485       .  S
C1305      C1306   1.406       .  A
C1305      C1310   1.506       .  S
C1306      C1307   1.405       .  A
C1306      H1311   1.085       .  S
C1307      C1308   1.417       .  A
C1308      C1312   1.508       .  S
C1309      C1314   1.408       .  A
C1309      C1318   1.400       .  A
C1310      H1326   1.110       .  S
C1310      H1327   1.110       .  S
C1310      H1328   1.111       .  S
C1312      H1323   1.110       .  S
C1312      H1324   1.111       .  S
C1312      H1325   1.107       .  S
C1314      C1315   1.405       .  A
C1314      C1319   1.506       .  S
C1315      C1316   1.410       .  A
C1315      H1320   1.083       .  S
C1316      C1317   1.424       .  A
C1317      C1318   1.407       .  A
C1317      C1321   1.509       .  S
C1318      H1322   1.084       .  S
C1319      H1329   1.111       .  S
C1319      H1330   1.110       .  S
C1319      H1331   1.111       .  S
C1321      H1332   1.110       .  S
C1321      H1333   1.111       .  S
C1321      H1334   1.111       .  S
C1335      C1336   1.401       .  A
C1335      C1340   1.401       .  A
C1335      H1345   1.084       .  S
C1336      C1337   1.411       .  A
C1336      C1341   1.479       .  S
C1337      C1338   1.402       .  A
C1337      C1342   1.505       .  S
C1338      C1339   1.401       .  A
C1338      H1343   1.084       .  S
C1339      C1340   1.414       .  A
C1340      C1344   1.507       .  S
C1341      C1346   1.410       .  A
C1341      C1350   1.401       .  A
C1342      H1358   1.107       .  S
C1342      H1359   1.110       .  S
C1342      H1360   1.110       .  S
C1344      H1355   1.110       .  S
C1344      H1356   1.108       .  S
C1344      H1357   1.107       .  S
C1346      C1347   1.399       .  A
C1346      C1351   1.508       .  S
C1347      C1348   1.405       .  A
C1347      H1352   1.084       .  S
C1348      C1349   1.419       .  A
C1349      C1350   1.409       .  A
C1349      C1353   1.506   1_556  S
C1350      H1354   1.084       .  S
C1351      H1361   1.111       .  S
C1351      H1362   1.110       .  S
C1351      H1363   1.111       .  S
C1353      H1364   1.111       .  S
C1353      H1365   1.111       .  S
C1353      H1366   1.109       .  S
C1367      C1368   1.402       .  A
C1367      C1372   1.403       .  A
C1367      H1377   1.085       .  S
C1368      C1369   1.411       .  A
C1368      C1373   1.479       .  S
C1369      C1370   1.402       .  A
C1369      C1374   1.506       .  S
C1370      C1371   1.401       .  A
C1370      H1375   1.084       .  S
C1371      C1372   1.414       .  A
C1372      C1376   1.508       .  S
C1373      C1378   1.409       .  A
C1373      C1382   1.398       .  A
C1374      H1390   1.110       .  S
C1374      H1391   1.110       .  S
C1374      H1392   1.111       .  S
C1376      H1387   1.111       .  S
C1376      H1388   1.111       .  S
C1376      H1389   1.108       .  S
C1378      C1379   1.407       .  A
C1378      C1383   1.505       .  S
C1379      C1380   1.409       .  A
C1379      H1384   1.083       .  S
C1380      C1381   1.421       .  A
C1381      C1382   1.400       .  A
C1381      C1385   1.510       .  S
C1382      H1386   1.084       .  S
C1383      H1393   1.111   1_556  S
C1383      H1394   1.110       .  S
C1383      H1395   1.110       .  S
C1385      H1396   1.111       .  S
C1385      H1397   1.111       .  S
C1385      H1398   1.110       .  S
C1399      C1400   1.405       .  A
C1399      C1404   1.403       .  A
C1399      C1805   1.475       .  S
C1400      C1401   1.401       .  A
C1400      H1405   1.084       .  S
C1401      C1402   1.400       .  A
C1401      C1773   1.479       .  S
C1402      C1403   1.403       .  A
C1402      H1406   1.084       .  S
C1403      C1404   1.402       .  A
C1403      C1837   1.474       .  S
C1404      H1407   1.083       .  S
Zn1408     O1413   2.012       .  S
Zn1408     O1424   2.006   1_565  S
Zn1409     O1414   2.023   1_556  S
Zn1409     O1420   2.026       .  S
Zn1409     O1412   1.962   1_655  S
Zn1410     O1418   2.020   1_556  S
Zn1410     O1421   2.016       .  S
Zn1411     O1422   2.006   1_455  S
Zn1411     O1423   2.031       .  S
Zn1411     O1412   1.959       .  S
O1413      C1425   1.272       .  A
O1414      C1426   1.275   1_655  A
O1415      C1427   1.276       .  A
O1416      C1425   1.272       .  A
O1417      C1427   1.272       .  A
O1419      C1428   1.274       .  A
O1420      C1429   1.275       .  A
O1421      C1428   1.274       .  A
O1422      C1429   1.274       .  A
O1423      C1430   1.276       .  A
C1425      C1645   1.468       .  S
C1426      C1750   1.497       .  S
C1427      C1846   1.492       .  S
C1428      C1677   1.488       .  S
C1429      C1814   1.481       .  S
C1430      C1718   1.488       .  S
C1431      C1432   1.403       .  A
C1431      C1436   1.403       .  A
C1431      C1686   1.474       .  S
C1432      C1433   1.399       .  A
C1432      H1437   1.084       .  S
C1433      C1434   1.399       .  A
C1433      C1613   1.480       .  S
C1434      C1435   1.404       .  A
C1434      H1438   1.085       .  S
C1435      C1436   1.402       .  A
C1435      C1654   1.476       .  S
C1436      H1439   1.081   1_554  S
C1440      C1441   1.403       .  A
C1440      C1445   1.404   1_565  A
C1440      C1558   1.478       .  S
C1441      H1446   1.084       .  S
C1443      C1444   1.402       .  A
C1443      H1447   1.084   1_455  S
C1444      C1590   1.478   1_455  S
Zn1449     O1454   2.029       .  S
Zn1449     O1458   2.006       .  S
Zn1449     O1465   2.024       .  S
Zn1449     O1453   1.952       .  S
Zn1450     O1455   2.013       .  S
Zn1450     O1457   2.011       .  S
Zn1450     O1461   2.028       .  S
Zn1450     O1453   1.945       .  S
Zn1451     O1456   2.036       .  S
Zn1451     O1459   2.031       .  S
Zn1451     O1462   2.021       .  S
Zn1451     O1453   1.955       .  S
Zn1452     O1460   2.024       .  S
Zn1452     O1463   2.010       .  S
Zn1452     O1464   2.007       .  S
Zn1452     O1453   1.948       .  S
O1454      C1466   1.275       .  A
O1455      C1467   1.273       .  A
O1456      C1468   1.276       .  A
O1457      C1466   1.273       .  A
O1458      C1468   1.272       .  A
O1459      C1467   1.277       .  A
O1460      C1469   1.275       .  A
O1461      C1470   1.274       .  A
O1462      C1469   1.273       .  A
O1463      C1470   1.274       .  A
O1464      C1471   1.272       .  A
O1465      C1471   1.276       .  A
C1466      C1526   1.477       .  S
C1467      C1782   1.495       .  S
C1468      C1549   1.480       .  S
C1469      C1494   1.495       .  S
C1470      C1581   1.490       .  S
C1471      C1622   1.491       .  S
C1472      C1477   1.400       .  A
C1472      C1517   1.473   1_545  S
C1474      C1475   1.406       .  A
C1474      C1485   1.482       .  S
C1475      C1476   1.401       .  A
C1475      H1479   1.084       .  S
C1476      C1709   1.480       .  S
C1477      H1480   1.084       .  S
C1481      C1482   1.402       .  A
C1481      C1486   1.406       .  A
C1481      H1491   1.085       .  S
C1482      C1483   1.410       .  A
C1482      C1487   1.482       .  S
C1483      C1484   1.402       .  A
C1483      C1488   1.507       .  S
C1484      C1485   1.404       .  A
C1484      H1489   1.084       .  S
C1485      C1486   1.418       .  A
C1486      C1490   1.509       .  S
C1487      C1492   1.408       .  A
C1487      C1496   1.398       .  A
C1488      H1504   1.110       .  S
C1488      H1505   1.110       .  S
C1488      H1506   1.111       .  S
C1490      H1501   1.111       .  S
C1492      C1493   1.407       .  A
C1492      C1497   1.506       .  S
C1493      C1494   1.411       .  A
C1493      H1498   1.084       .  S
C1494      C1495   1.423       .  A
C1495      C1496   1.403       .  A
C1495      C1499   1.509       .  S
C1496      H1500   1.084       .  S
C1497      H1507   1.111       .  S
C1497      H1508   1.110       .  S
C1497      H1509   1.110       .  S
C1499      H1510   1.111       .  S
C1499      H1511   1.110       .  S
C1499      H1512   1.111       .  S
C1513      C1514   1.401       .  A
C1513      C1518   1.400   1_565  A
C1513      H1523   1.085       .  S
C1514      C1515   1.411       .  A
C1514      C1519   1.480       .  S
C1515      C1516   1.404       .  A
C1515      C1520   1.506       .  S
C1516      C1517   1.403       .  A
C1516      H1521   1.084   1_655  S
C1517      C1518   1.413   1_565  A
C1518      C1522   1.507       .  S
C1519      C1524   1.410       .  A
C1519      C1528   1.401       .  A
C1520      H1536   1.109       .  S
C1520      H1537   1.110       .  S
C1520      H1538   1.109   1_655  S
C1522      H1534   1.104       .  S
C1524      C1525   1.401       .  A
C1524      C1529   1.508       .  S
C1525      C1526   1.404       .  A
C1525      H1530   1.085       .  S
C1526      C1527   1.417       .  A
C1527      C1528   1.405       .  A
C1527      C1531   1.506       .  S
C1528      H1532   1.084       .  S
C1529      H1539   1.111       .  S
C1529      H1540   1.110       .  S
C1529      H1541   1.110       .  S
C1531      H1542   1.110       .  S
C1531      H1543   1.107       .  S
C1531      H1544   1.111       .  S
C1545      C1546   1.401       .  A
C1545      C1550   1.401       .  A
C1545      H1555   1.085       .  S
C1546      C1547   1.411       .  A
C1546      C1551   1.483       .  S
C1547      C1548   1.407       .  A
C1547      C1552   1.505       .  S
C1548      C1549   1.405       .  A
C1548      H1553   1.084       .  S
C1549      C1550   1.417       .  A
C1550      C1554   1.509       .  S
C1551      C1556   1.411       .  A
C1551      C1560   1.403       .  A
C1552      H1568   1.109       .  S
C1552      H1569   1.110       .  S
C1552      H1570   1.110       .  S
C1554      H1565   1.111       .  S
C1554      H1566   1.110       .  S
C1554      H1567   1.109       .  S
C1556      C1557   1.401       .  A
C1556      C1561   1.507       .  S
C1557      C1558   1.403       .  A
C1557      H1562   1.085   1_565  S
C1558      C1559   1.415       .  A
C1559      C1560   1.405       .  A
C1559      C1563   1.508       .  S
C1560      H1564   1.084       .  S
C1561      H1571   1.111       .  S
C1561      H1572   1.109       .  S
C1561      H1573   1.110       .  S
C1563      H1574   1.111       .  S
C1563      H1576   1.110       .  S
C1577      C1578   1.400       .  A
C1577      C1582   1.407       .  A
C1577      H1587   1.084       .  S
C1578      C1579   1.409       .  A
C1578      C1583   1.480       .  S
C1579      C1580   1.401       .  A
C1579      C1584   1.508       .  S
C1580      C1581   1.408       .  A
C1580      H1585   1.084       .  S
C1581      C1582   1.420       .  A
C1582      C1586   1.507       .  S
C1583      C1588   1.410       .  A
C1583      C1592   1.401       .  A
C1584      H1600   1.110       .  S
C1584      H1601   1.110       .  S
C1584      H1602   1.111       .  S
C1586      H1597   1.110       .  S
C1586      H1598   1.111       .  S
C1586      H1599   1.111       .  S
C1588      C1589   1.402       .  A
C1588      C1593   1.506       .  S
C1589      C1590   1.404       .  A
C1589      H1594   1.084   1_655  S
C1590      C1591   1.415       .  A
C1591      C1592   1.404       .  A
C1591      C1595   1.507       .  S
C1592      H1596   1.084       .  S
C1593      H1603   1.111   1_655  S
C1593      H1604   1.110       .  S
C1593      H1605   1.110       .  S
C1595      H1606   1.110       .  S
C1595      H1607   1.107       .  S
C1595      H1608   1.110       .  S
C1609      C1610   1.401       .  A
C1609      C1614   1.403       .  A
C1609      H1619   1.084       .  S
C1610      C1611   1.411       .  A
C1610      C1615   1.481       .  S
C1611      C1612   1.403       .  A
C1611      C1616   1.506       .  S
C1612      C1613   1.404       .  A
C1612      H1617   1.085       .  S
C1613      C1614   1.415       .  A
C1614      C1618   1.508       .  S
C1615      C1620   1.409       .  A
C1615      C1624   1.399       .  A
C1616      H1632   1.110       .  S
C1616      H1633   1.110       .  S
C1616      H1634   1.111       .  S
C1618      H1629   1.111       .  S
C1618      H1630   1.109       .  S
C1618      H1631   1.110       .  S
C1620      C1621   1.403       .  A
C1620      C1625   1.507       .  S
C1621      C1622   1.408       .  A
C1621      H1626   1.084       .  S
C1622      C1623   1.423       .  A
C1623      C1624   1.404       .  A
C1623      C1627   1.509       .  S
C1624      H1628   1.084       .  S
C1625      H1635   1.111       .  S
C1625      H1636   1.110       .  S
C1625      H1637   1.111       .  S
C1627      H1638   1.110       .  S
C1627      H1639   1.111       .  S
C1627      H1640   1.111       .  S
C1641      C1642   1.400       .  A
C1641      C1646   1.399       .  A
C1641      H1651   1.085   1_556  S
C1642      C1643   1.411       .  A
C1642      C1647   1.477       .  S
C1643      C1644   1.405       .  A
C1643      C1648   1.504       .  S
C1644      C1645   1.403       .  A
C1644      H1649   1.083       .  S
C1645      C1646   1.414       .  A
C1646      C1650   1.509   1_556  S
C1647      C1652   1.413       .  A
C1647      C1656   1.400       .  A
C1648      H1664   1.110       .  S
C1648      H1665   1.110       .  S
C1648      H1666   1.110       .  S
C1650      H1661   1.111       .  S
C1650      H1662   1.110       .  S
C1650      H1663   1.108       .  S
C1652      C1653   1.403       .  A
C1652      C1657   1.505       .  S
C1653      C1654   1.403   1_556  A
C1653      H1658   1.085       .  S
C1654      C1655   1.415       .  A
C1655      C1656   1.399   1_554  A
C1655      C1659   1.508       .  S
C1656      H1660   1.085   1_556  S
C1657      H1667   1.109       .  S
C1657      H1668   1.111       .  S
C1657      H1669   1.108       .  S
C1659      H1670   1.110       .  S
C1659      H1671   1.109       .  S
C1659      H1672   1.110       .  S
C1673      C1674   1.399   1_554  A
C1673      C1678   1.402       .  A
C1673      H1683   1.085       .  S
C1674      C1675   1.407       .  A
C1674      C1679   1.478       .  S
C1675      C1676   1.404       .  A
C1675      C1680   1.505       .  S
C1676      C1677   1.409       .  A
C1676      H1681   1.084       .  S
C1677      C1678   1.421   1_556  A
C1678      C1682   1.509       .  S
C1679      C1684   1.410   1_556  A
C1679      C1688   1.401       .  A
C1680      H1696   1.110       .  S
C1680      H1697   1.110       .  S
C1680      H1698   1.111       .  S
C1682      H1693   1.111       .  S
C1682      H1694   1.109       .  S
C1682      H1695   1.111       .  S
C1684      C1685   1.401       .  A
C1684      C1689   1.506       .  S
C1685      C1686   1.403       .  A
C1685      H1690   1.085       .  S
C1686      C1687   1.415   1_554  A
C1687      C1688   1.403       .  A
C1687      C1691   1.507       .  S
C1688      H1692   1.084       .  S
C1689      H1699   1.111       .  S
C1689      H1700   1.110       .  S
C1689      H1701   1.110   1_554  S
C1691      H1702   1.110       .  S
C1691      H1703   1.107       .  S
C1691      H1704   1.110       .  S
C1705      C1710   1.403       .  A
C1705      H1715   1.084       .  S
C1706      C1711   1.480       .  S
C1707      C1708   1.402       .  A
C1707      C1712   1.506       .  S
C1708      H1713   1.084       .  S
C1710      C1714   1.508       .  S
C1712      H1728   1.110       .  S
C1712      H1730   1.111       .  S
C1714      H1725   1.110       .  S
C1714      H1727   1.109       .  S
C1716      C1717   1.404       .  A
C1716      C1721   1.506       .  S
C1717      C1718   1.406       .  A
C1717      H1722   1.084       .  S
C1719      C1720   1.404       .  A
C1719      C1723   1.509       .  S
C1720      H1724   1.084       .  S
C1721      H1731   1.111       .  S
C1721      H1732   1.110       .  S
C1723      H1735   1.110       .  S
C1723      H1736   1.111       .  S
C1737      C1742   1.404       .  A
C1737      H1747   1.085       .  S
C1738      C1739   1.411   1_545  A
C1739      C1740   1.401       .  A
C1739      C1744   1.507       .  S
C1740      H1745   1.084       .  S
C1742      C1746   1.508       .  S
C1743      C1748   1.407   1_455  A
C1744      H1760   1.110       .  S
C1744      H1761   1.110       .  S
C1744      H1762   1.111       .  S
C1746      H1757   1.110       .  S
C1746      H1758   1.111       .  S
C1746      H1759   1.107       .  S
C1748      C1749   1.403       .  A
C1748      C1753   1.507       .  S
C1749      C1750   1.410   1_655  A
C1749      H1754   1.083       .  S
C1751      C1752   1.402       .  A
C1751      C1755   1.508       .  S
C1752      H1756   1.084       .  S
C1753      H1763   1.111       .  S
C1753      H1764   1.110       .  S
C1753      H1765   1.110       .  S
C1755      H1766   1.110       .  S
C1755      H1767   1.107       .  S
C1755      H1768   1.111       .  S
C1769      C1770   1.402       .  A
C1769      C1774   1.404       .  A
C1769      H1779   1.084       .  S
C1770      C1771   1.412       .  A
C1770      C1775   1.484       .  S
C1771      C1772   1.404       .  A
C1771      C1776   1.507       .  S
C1772      C1773   1.403       .  A
C1772      H1777   1.084       .  S
C1773      C1774   1.416       .  A
C1774      C1778   1.508       .  S
C1775      C1780   1.409       .  A
C1775      C1784   1.399       .  A
C1776      H1792   1.110       .  S
C1776      H1793   1.110       .  S
C1776      H1794   1.111       .  S
C1778      H1789   1.110       .  S
C1778      H1790   1.110       .  S
C1778      H1791   1.108       .  S
C1780      C1781   1.405       .  A
C1780      C1785   1.506       .  S
C1781      C1782   1.409       .  A
C1781      H1786   1.084       .  S
C1782      C1783   1.424       .  A
C1783      C1784   1.405       .  A
C1783      C1787   1.509       .  S
C1784      H1788   1.084       .  S
C1785      H1795   1.111       .  S
C1785      H1796   1.110       .  S
C1785      H1797   1.110       .  S
C1787      H1798   1.110       .  S
C1787      H1799   1.110       .  S
C1787      H1800   1.111       .  S
C1801      C1802   1.401       .  A
C1801      C1806   1.401       .  A
C1801      H1811   1.084       .  S
C1802      C1803   1.411       .  A
C1802      C1807   1.479       .  S
C1803      C1804   1.404       .  A
C1803      C1808   1.506       .  S
C1804      C1805   1.403       .  A
C1804      H1809   1.084       .  S
C1805      C1806   1.414       .  A
C1806      C1810   1.507       .  S
C1807      C1812   1.409       .  A
C1807      C1816   1.401       .  A
C1808      H1824   1.110       .  S
C1808      H1825   1.111       .  S
C1808      H1826   1.111       .  S
C1810      H1821   1.110       .  S
C1810      H1822   1.110       .  S
C1810      H1823   1.108       .  S
C1812      C1813   1.399       .  A
C1812      C1817   1.508       .  S
C1813      C1814   1.405       .  A
C1813      H1818   1.084       .  S
C1814      C1815   1.420       .  A
C1815      C1816   1.406       .  A
C1815      C1819   1.508   1_556  S
C1816      H1820   1.085       .  S
C1817      H1827   1.111       .  S
C1817      H1828   1.110       .  S
C1817      H1829   1.110       .  S
C1819      H1830   1.111       .  S
C1819      H1831   1.105       .  S
C1819      H1832   1.110       .  S
C1833      C1834   1.401       .  A
C1833      C1838   1.400       .  A
C1833      H1843   1.085       .  S
C1834      C1835   1.412       .  A
C1834      C1839   1.482       .  S
C1835      C1836   1.405       .  A
C1835      C1840   1.504       .  S
C1836      C1837   1.403       .  A
C1836      H1841   1.084       .  S
C1837      C1838   1.413       .  A
C1838      C1842   1.505       .  S
C1839      C1844   1.408       .  A
C1839      C1848   1.399       .  A
C1840      H1856   1.109       .  S
C1840      H1857   1.110       .  S
C1840      H1858   1.109       .  S
C1842      H1853   1.109       .  S
C1842      H1854   1.110       .  S
C1842      H1855   1.109       .  S
C1844      C1845   1.405       .  A
C1844      C1849   1.506       .  S
C1845      C1846   1.409       .  A
C1845      H1850   1.083       .  S
C1846      C1847   1.423       .  A
C1847      C1848   1.403       .  A
C1847      C1851   1.509       .  S
C1848      H1852   1.085       .  S
C1849      H1859   1.110   1_556  S
C1849      H1860   1.109       .  S
C1849      H1861   1.110   1_556  S
C1851      H1862   1.111       .  S
C1851      H1863   1.110       .  S
C1851      H1864   1.110       .  S
