geometry optimzed in LAMMPS
_audit_creation_date              2020-12-01 
_audit_creation_method            'lammps2cif' 
_symmetry_space_group_name_H-M    'P1' 
_symmetry_Int_Tables_number       1 
_symmetry_cell_setting            triclinic 
loop_ 
_symmetry_equiv_pos_as_xyz 
  x,y,z 
_cell_length_a                    39.26090363 
_cell_length_b                    39.386397259379116 
_cell_length_c                    39.4558265635947 
_cell_angle_alpha                 89.8152075989052 
_cell_angle_beta                  89.76934213242549 
_cell_angle_gamma                 90.03777336202538 
loop_ 
_atom_site_label 
_atom_site_type_symbol 
_atom_site_fract_x 
_atom_site_fract_y 
_atom_site_fract_z 
_atom_site_charge 
C1          C  0.45568813  0.57795547  0.89827791     0.42300
N2          N  0.46110644  0.55005453  0.94436637     0.01200
C3          C  0.60539757  0.54382821  0.04316559    -0.06700
H4          H  0.62155503  0.52197164  0.90835426     0.06700
C5          C  0.55428928  0.42102699  0.91989808    -0.07000
Co6        Co  0.52444590  0.56936583  0.98084367     0.74200
N7          N  0.58296059  0.53877305  0.94349557    -0.26200
Co8        Co  0.58037591  0.50182843  0.98171567     0.74100
C9          C  0.58575422  0.43166921  0.90328252     0.42400
N10         N  0.47535936  0.44985698  0.94315797     0.00800
N11         N  0.57647770  0.46394035  0.94568149     0.00900
N12         N  0.56838901  0.58784381  0.04227814    -0.47100
H13         H  0.50381234  0.60960180  0.90886618     0.06700
N14         N  0.56182225  0.56480390  0.94331339     0.01200
N15         N  0.57505012  0.46495786  0.01978346     0.00900
C16         C  0.58153868  0.43510322  0.06500998     0.42500
N17         N  0.45394462  0.47567754  0.94325086    -0.25700
C18         C  0.48463361  0.59148689  0.04513592    -0.06600
N19         N  0.44178533  0.55308105  0.91723230    -0.46800
N20         N  0.59492794  0.46087154  0.04657458    -0.47000
C21         C  0.45424472  0.57993571  0.06319186     0.42300
N22         N  0.56220798  0.56598948  0.01757426     0.01200
N23         N  0.45224969  0.47487081  0.01728056    -0.25700
N24         N  0.48703234  0.57130158  0.94419440    -0.26200
N25         N  0.47339884  0.44890690  0.01739688     0.00800
H26         H  0.40794047  0.48724323  0.04716940     0.06700
H27         H  0.53307424  0.40390566  0.05387411     0.06700
N28         N  0.58339269  0.54006526  0.01766990    -0.26200
N29         N  0.55060227  0.44261522  0.94570720    -0.25800
N30         N  0.46083521  0.54995349  0.01839280     0.01200
C31         C  0.59057083  0.57044578  0.89714986     0.42600
C32         C  0.43431654  0.47381582  0.91551073    -0.07100
N33         N  0.54910818  0.44353247  0.01956858    -0.25800
H34         H  0.53677794  0.40087986  0.91350620     0.06700
N35         N  0.56545089  0.58426505  0.91605778    -0.47100
H36         H  0.41479441  0.49180407  0.90848538     0.06700
C37         C  0.43814982  0.43809217  0.05750364     0.42400
C38         C  0.48545422  0.59049146  0.91625336    -0.06600
Co39       Co  0.45612280  0.51283057  0.98098417     0.73800
N40         N  0.47174411  0.43026901  0.91610475    -0.46800
C41         C  0.59535296  0.57549723  0.05954516     0.42700
N42         N  0.44080812  0.55411787  0.04515485    -0.46800
Co43       Co  0.51209146  0.44532394  0.98148302     0.73900
C44         C  0.55114852  0.42349813  0.04704635    -0.07100
C45         C  0.60241425  0.54032997  0.91548192    -0.06700
N46         N  0.48677614  0.57133899  0.01800650    -0.26200
N47         N  0.59812553  0.45837664  0.92056750    -0.47000
H48         H  0.62582502  0.52647432  0.04918233     0.06700
C49         C  0.42905483  0.47044016  0.04185867    -0.07100
Cl50       Cl  0.51827326  0.50730343  0.98143633    -0.50100
C51         C  0.44632248  0.44381242  0.89733905     0.42400
H52         H  0.50273645  0.61105766  0.05167538     0.06700
N53         N  0.46581011  0.42616288  0.04100683    -0.46800
C54         C  0.44712434  0.91970419  0.55016127     0.42300
N55         N  0.47603452  0.96531223  0.54260210     0.01200
C56         C  0.48087330  0.06376156  0.39770204    -0.06700
H57         H  0.50570089  0.93055627  0.38092997     0.06700
C58         C  0.60445904  0.94065054  0.45032686    -0.07000
Co59       Co  0.45610191  0.00087145  0.47868160     0.74200
N60         N  0.48818438  0.96422036  0.42028435    -0.26200
Co61       Co  0.52414358  0.00308648  0.42221784     0.74100
C62         C  0.59330366  0.92285131  0.41991691     0.42400
N63         N  0.57668435  0.96768987  0.52716518     0.00800
N64         N  0.56287529  0.96747468  0.42653360     0.00900
N65         N  0.43672654  0.06200449  0.43478932    -0.47100
H66         H  0.41603053  0.92928423  0.50156408     0.06700
N67         N  0.46233369  0.96294917  0.44174788     0.01200
N68         N  0.56015164  0.04208206  0.42622180     0.00900
C69         C  0.58861226  0.08833236  0.41948530     0.42500
N70         N  0.55086349  0.96759068  0.54866094    -0.25700
C71         C  0.43108160  0.06542099  0.51832693    -0.06600
N72         N  0.47234438  0.93890218  0.56320391    -0.46800
N73         N  0.56335062  0.06914720  0.40631568    -0.47000
C74         C  0.44217403  0.08366803  0.54868170     0.42300
N75         N  0.45895926  0.03745147  0.44070152     0.01200
N76         N  0.54918704  0.04180631  0.54783752    -0.25700
N77         N  0.45490532  0.96441134  0.51674370    -0.26200
N78         N  0.57509813  0.04208473  0.52645407     0.00800
H79         H  0.53378207  0.07558046  0.58793584     0.06700
H80         H  0.62035991  0.07775623  0.46740272     0.06700
N81         N  0.48496914  0.03809113  0.41946622    -0.26200
N82         N  0.58395008  0.96778736  0.45243887    -0.25800
N83         N  0.47379058  0.03973669  0.54142440     0.01200
C84         C  0.45802829  0.91712265  0.41241091     0.42600
C85         C  0.55313033  0.94009529  0.56854346    -0.07100
N86         N  0.58165977  0.04239635  0.45183515    -0.25800
H87         H  0.62400862  0.93386184  0.46833288     0.06700
N88         N  0.44377303  0.93506408  0.43800728    -0.47100
H89         H  0.53494392  0.93289807  0.58789883     0.06700
C90         C  0.58224741  0.08669516  0.55644889     0.42400
C91         C  0.43536740  0.93673219  0.51945572    -0.06600
Co92       Co  0.51240581  0.00370441  0.54610708     0.73800
N93         N  0.59657603  0.94078531  0.53081053    -0.46800
C94         C  0.44896593  0.07964596  0.40799881     0.42700
N95         N  0.46872560  0.06614405  0.56151029    -0.46800
Co96       Co  0.58036002  0.00496738  0.48954303     0.73900
C97         C  0.60092195  0.07043157  0.44955786    -0.07100
C98         C  0.48734095  0.93663606  0.40045324    -0.06700
N99         N  0.45228150  0.03875506  0.51580439    -0.26200
N100        N  0.56756293  0.94102066  0.40651463    -0.47000
H101        H  0.49826855  0.07024414  0.37740878     0.06700
C102        C  0.55159024  0.06897594  0.56806366    -0.07100
Cl103      Cl  0.51822368  0.00322148  0.48414414    -0.50100
C104        C  0.58325677  0.92213049  0.55643236     0.42400
H105        H  0.41112950  0.07167661  0.50057969     0.06700
N106        N  0.59543321  0.06849853  0.53069609    -0.46800
C107        C  0.94081437  0.58505043  0.54687817     0.42300
N108        N  0.98583912  0.55482783  0.54008276     0.01200
C109        C  0.08503468  0.53995478  0.39616970    -0.06700
H110        H  0.94867636  0.52606679  0.37953102     0.06700
C111        C  0.95052171  0.42874140  0.45318699    -0.07000
Co112      Co  0.02238974  0.57179786  0.47547959     0.74200
N113        N  0.98329326  0.54209801  0.41829303    -0.26200
Co114      Co  0.01860935  0.50325695  0.42070782     0.74100
C115        C  0.93215508  0.44066929  0.42326941     0.42400
N116        N  0.98327118  0.45414772  0.52811186     0.00800
N117        N  0.97943396  0.46783262  0.42733706     0.00900
N118        N  0.08628277  0.58421377  0.43244709    -0.47100
H119        H  0.95164626  0.61539257  0.49796038     0.06700
N120        N  0.98381236  0.56811566  0.43921236     0.01200
N121        N  0.05379977  0.46424140  0.42452602     0.00900
C122        C  0.09429218  0.42939544  0.41473487     0.42500
N123        N  0.98425963  0.48014264  0.54900407    -0.25700
C124        C  0.09026982  0.59069514  0.51224543    -0.06600
N125        N  0.95909494  0.55923765  0.56015604    -0.46800
N126        N  0.07790401  0.45679201  0.40230468    -0.47000
C127        C  0.10872673  0.57763950  0.54165631     0.42300
N128        N  0.05873880  0.56538163  0.43717292     0.01200
N129        N  0.05839815  0.47778802  0.54618003    -0.25700
N130        N  0.98604242  0.57590252  0.51401078    -0.26200
N131        N  0.05756827  0.45191184  0.52504542     0.00800
H132        H  0.09357775  0.49282687  0.58500783     0.06700
H133        H  0.08374591  0.39993014  0.46429171     0.06700
N134        N  0.05754230  0.53911435  0.41651757    -0.26200
N135        N  0.97929310  0.44713372  0.45372201    -0.25800
N136        N  0.06070010  0.55207137  0.53787322     0.01200
C137        C  0.93836673  0.57484751  0.40988224     0.42600
C138        C  0.95840734  0.47735451  0.57118953    -0.07100
N139        N  0.05348321  0.44337607  0.45068504    -0.25800
H140        H  0.94312786  0.41000960  0.47189064     0.06700
N141        N  0.95706515  0.58830563  0.43526658    -0.47100
H142        H  0.95272986  0.49492856  0.59142848     0.06700
C143        C  0.10317804  0.44428968  0.55395400     0.42400
C144        C  0.95880547  0.59632857  0.51633858    -0.06600
Co145      Co  0.02221512  0.51645006  0.54423220     0.73800
N146        N  0.95778455  0.43328937  0.53456561    -0.46800
C147        C  0.10416326  0.56986050  0.40698603     0.42700
N148        N  0.08875100  0.55389524  0.55623707    -0.46800
Co149      Co  0.01843212  0.44827527  0.48946442     0.73900
C150        C  0.07813159  0.42032282  0.44678477    -0.07100
C151        C  0.95597060  0.54445558  0.39842389    -0.06700
N152        N  0.06102838  0.57302728  0.51173479    -0.26200
N153        N  0.95172363  0.46479213  0.40851286    -0.47000
H154        H  0.09148335  0.52116158  0.37729548     0.06700
C155        C  0.08599169  0.47491653  0.56578063    -0.07100
Cl156      Cl  0.02041645  0.50998722  0.48244515    -0.50100
C157        C  0.94089255  0.44620863  0.56128802     0.42400
H158        H  0.09827667  0.60901167  0.49339941     0.06700
N159        N  0.08406430  0.43134006  0.52864117    -0.46800
C160        C  0.70726123  0.35945689  0.33582394     0.80100
N161        N  0.69244552  0.33165722  0.35029162    -0.78200
C162        C  0.66467652  0.31684274  0.33600996     0.82500
N163        N  0.65183642  0.33016901  0.30695919    -0.78200
C164        C  0.66612693  0.35796942  0.29215830     0.82600
N165        N  0.69397184  0.37235764  0.30667645    -0.79900
C166        C  0.71108484  0.65472808  0.33144215     0.80100
N167        N  0.69919107  0.64334342  0.30126712    -0.78200
C168        C  0.67326251  0.65947989  0.28521034     0.82500
N169        N  0.65928101  0.68749917  0.29962523    -0.78200
C170        C  0.67076995  0.69914891  0.32990071     0.82600
N171        N  0.69674836  0.68268713  0.34553802    -0.79900
C172        C  0.67996369  0.34468728  0.68596416     0.80100
N173        N  0.70904056  0.35800661  0.67325342    -0.78200
C174        C  0.72407997  0.34454433  0.64544129     0.82500
N175        N  0.70968154  0.31713725  0.63014002    -0.78200
C176        C  0.68032469  0.30355994  0.64267104     0.82600
N177        N  0.66581702  0.31748269  0.67061236    -0.79900
C178        C  0.38250719  0.68541337  0.34149604     0.80100
N179        N  0.39517391  0.67295227  0.31194119    -0.78200
C180        C  0.37990507  0.64647817  0.29613240     0.82500
N181        N  0.35163127  0.63247889  0.31013755    -0.78200
C182        C  0.33848151  0.64434517  0.33964344     0.82600
N183        N  0.35392330  0.67107409  0.35515539    -0.79900
C184        C  0.37649770  0.68889644  0.62913407     0.80100
N185        N  0.35060990  0.67294617  0.61303163    -0.78200
C186        C  0.33810798  0.64292287  0.62465053     0.82500
N187        N  0.35169418  0.62887248  0.65297199    -0.78200
C188        C  0.37786449  0.64442779  0.66913288     0.82600
N189        N  0.38996741  0.67447208  0.65720127    -0.79900
C190        C  0.37567888  0.36012149  0.66873148     0.80100
N191        N  0.34785864  0.37471468  0.65437047    -0.78200
C192        C  0.33153384  0.35966236  0.62807028     0.82500
N193        N  0.34332439  0.32953092  0.61617984    -0.78200
C194        C  0.37110024  0.31440605  0.63010904     0.82600
N195        N  0.38702838  0.32979490  0.65656048    -0.79900
C196        C  0.66276056  0.64905076  0.66617084     0.80100
N197        N  0.64757200  0.67600518  0.65089953    -0.78200
C198        C  0.66138952  0.69051672  0.62277345     0.82500
N199        N  0.69103763  0.67799682  0.61015299    -0.78200
C200        C  0.70675551  0.65107094  0.62496446     0.82600
N201        N  0.69245549  0.63671179  0.65308797    -0.79900
C202        C  0.34699057  0.28992491  0.31059246     0.80100
N203        N  0.35961078  0.30367869  0.28145908    -0.78200
C204        C  0.34394513  0.33074881  0.26684716     0.82500
N205        N  0.31556428  0.34379526  0.28146306    -0.78200
C206        C  0.30263803  0.33016043  0.31032505     0.82600
N207        N  0.31848838  0.30327471  0.32473487    -0.79900
C208        C  0.23491029  0.35718245  0.54743798    -0.18000
C209        C  0.20260941  0.36847246  0.53752486    -0.20200
C210        C  0.18629174  0.39475146  0.55523372     0.20500
C211        C  0.20303683  0.41023285  0.58277307    -0.03100
C212        C  0.23565605  0.39892082  0.59269455    -0.06100
C213        C  0.25150232  0.37200725  0.57518710     0.20800
C214        C  0.25212766  0.41419266  0.62048827     0.18900
C215        C  0.23614306  0.44090297  0.63778587    -0.17600
C216        C  0.20384566  0.45204145  0.62802078    -0.19800
C217        C  0.18703368  0.43675262  0.60071487     0.20400
C218        C  0.15441313  0.44743664  0.59123733    -0.32900
C219        C  0.13736817  0.43206125  0.56400060     0.01100
C220        C  0.15351585  0.40573401  0.54603860    -0.24200
C221        C  0.28329444  0.35995327  0.58617577    -0.28800
C222        C  0.29950711  0.37444853  0.61449359     0.06800
C223        C  0.28393148  0.40203123  0.63103541    -0.27400
H224        H  0.24677549  0.33659355  0.53358993     0.11500
H225        H  0.19026244  0.35643913  0.51618840     0.12600
H226        H  0.24845907  0.45293318  0.65914957     0.11700
H227        H  0.19186730  0.47242353  0.64205155     0.11000
H228        H  0.14235568  0.46771433  0.60531801     0.16300
H229        H  0.14067356  0.39391088  0.52485801     0.12300
H230        H  0.29506536  0.33884718  0.57303023     0.15100
H231        H  0.29605232  0.41350615  0.65282448     0.14900
C232        C  0.24821412  0.65040549  0.53910184    -0.18000
C233        C  0.21541898  0.64233910  0.52833776    -0.20200
C234        C  0.19684233  0.61650136  0.54447817     0.20500
C235        C  0.21157030  0.59830327  0.57158154    -0.03100
C236        C  0.24456968  0.60672324  0.58274208    -0.06100
C237        C  0.26271462  0.63316139  0.56659483     0.20800
C238        C  0.25884764  0.58962864  0.61079189     0.18900
C239        C  0.24046823  0.56334650  0.62658525    -0.17600
C240        C  0.20775545  0.55486876  0.61539430    -0.19800
C241        C  0.19289031  0.57258360  0.58827608     0.20400
C242        C  0.15939369  0.56567463  0.57807995    -0.32900
C243        C  0.14434716  0.58431919  0.55154509     0.01100
C244        C  0.16344566  0.60928145  0.53454497    -0.24200
C245        C  0.29430709  0.64315728  0.57922452    -0.28800
C246        C  0.30782692  0.62779059  0.60840610     0.06800
C247        C  0.29051474  0.60018907  0.62340203    -0.27400
H248        H  0.26183273  0.67087767  0.52656377     0.11500
H249        H  0.20424145  0.65698820  0.50804023     0.12600
H250        H  0.25108241  0.54983341  0.64806565     0.11700
H251        H  0.19378955  0.53499360  0.62840616     0.11000
H252        H  0.14492229  0.54612066  0.59109697     0.16300
H253        H  0.15223139  0.62360313  0.51397216     0.12300
H254        H  0.30758461  0.66412750  0.56713411     0.15100
H255        H  0.30083666  0.58794099  0.64576071     0.14900
C256        C  0.23763476  0.57157184  0.32232005    -0.18000
C257        C  0.20449423  0.56174921  0.33106452    -0.20200
C258        C  0.18861130  0.57519362  0.35996999     0.20500
C259        C  0.20647801  0.59848079  0.38045289    -0.03100
C260        C  0.23998635  0.60829859  0.37170256    -0.06100
C261        C  0.25546525  0.59495401  0.34236020     0.20800
C262        C  0.25769979  0.63193778  0.39193814     0.18900
C263        C  0.24189387  0.64511593  0.42101560    -0.17600
C264        C  0.20861240  0.63554267  0.42951691    -0.19800
C265        C  0.19069079  0.61238628  0.40938632     0.20400
C266        C  0.15716883  0.60311647  0.41756942    -0.32900
C267        C  0.13920232  0.57989892  0.39735202     0.01100
C268        C  0.15513030  0.56594073  0.36862592    -0.24200
C269        C  0.28815648  0.60584638  0.33303592    -0.28800
C270        C  0.30563753  0.63035139  0.35232785     0.06800
C271        C  0.29044191  0.64273909  0.38219413    -0.27400
H272        H  0.24920865  0.56111039  0.29967035     0.11500
H273        H  0.19119723  0.54383667  0.31507434     0.12600
H274        H  0.25503863  0.66327127  0.43686831     0.11700
H275        H  0.19660436  0.64662806  0.45153987     0.11000
H276        H  0.14516756  0.61380612  0.43991717     0.16300
H277        H  0.14146077  0.54811963  0.35285622     0.12300
H278        H  0.29948751  0.59588464  0.31004151     0.15100
H279        H  0.30363038  0.66145564  0.39736299     0.14900
C280        C  0.21037107  0.41465206  0.31033603    -0.18000
C281        C  0.18103709  0.42842219  0.32485541    -0.20200
C282        C  0.16694776  0.41392078  0.35421656     0.20500
C283        C  0.18236819  0.38517190  0.36908445    -0.03100
C284        C  0.21190117  0.37126124  0.35441852    -0.06100
C285        C  0.22597599  0.38618206  0.32498444     0.20800
C286        C  0.22745786  0.34262104  0.36932860     0.18900
C287        C  0.21327272  0.32805952  0.39866035    -0.17600
C288        C  0.18399385  0.34194599  0.41330468    -0.19800
C289        C  0.16845145  0.37051601  0.39873682     0.20400
C290        C  0.13939410  0.38486330  0.41343987    -0.32900
C291        C  0.12414474  0.41362144  0.39882171     0.01100
C292        C  0.13788153  0.42787018  0.36914513    -0.24200
C293        C  0.25554445  0.37254004  0.31076975    -0.28800
C294        C  0.27133834  0.34414605  0.32554542     0.06800
C295        C  0.25704872  0.32921001  0.35475917    -0.27400
H296        H  0.22093372  0.42633695  0.28772615     0.11500
H297        H  0.16945846  0.45053035  0.31321377     0.12600
H298        H  0.22493229  0.30604504  0.41038224     0.11700
H299        H  0.17358702  0.33044039  0.43607605     0.11000
H300        H  0.12889499  0.37368604  0.43629993     0.16300
H301        H  0.12618190  0.45010914  0.35783136     0.12300
H302        H  0.26629016  0.38422210  0.28822506     0.15100
H303        H  0.26895845  0.30721937  0.36628961     0.14900
C304        C  0.80658072  0.57370851  0.62966573    -0.18000
C305        C  0.83950236  0.56491207  0.61911358    -0.20200
C306        C  0.85625935  0.58394258  0.59392446     0.20500
C307        C  0.83946865  0.61177496  0.57883534    -0.03100
C308        C  0.80621831  0.62061282  0.58945849    -0.06100
C309        C  0.78978813  0.60165398  0.61519269     0.20800
C310        C  0.78958261  0.64860400  0.57454087     0.18900
C311        C  0.80609698  0.66726304  0.54891743    -0.17600
C312        C  0.83897685  0.65848560  0.53836029    -0.19800
C313        C  0.85595414  0.63092332  0.55327561     0.20400
C314        C  0.88911997  0.62224401  0.54312741    -0.32900
C315        C  0.90614177  0.59470045  0.55822391     0.01100
C316        C  0.88949497  0.57565496  0.58360321    -0.24200
C317        C  0.75707525  0.61120845  0.62627160    -0.28800
C318        C  0.74047472  0.63950094  0.61193781     0.06800
C319        C  0.75691000  0.65774886  0.58575140    -0.27400
H320        H  0.79432867  0.55875259  0.64933491     0.11500
H321        H  0.85193437  0.54332126  0.63079784     0.12600
H322        H  0.79363384  0.68880239  0.53714577     0.11700
H323        H  0.85120222  0.67337476  0.51861934     0.11000
H324        H  0.90162967  0.63707283  0.52353185     0.16300
H325        H  0.90228940  0.55419912  0.59516941     0.12300
H326        H  0.74475791  0.59682689  0.64633207     0.15100
H327        H  0.74457400  0.67958420  0.57438095     0.14900
C328        C  0.81431459  0.43114724  0.65405710    -0.18000
C329        C  0.84478784  0.44550649  0.64249101    -0.20200
C330        C  0.86188087  0.43155770  0.61454776     0.20500
C331        C  0.84806644  0.40290856  0.59802660    -0.03100
C332        C  0.81736428  0.38848796  0.60962777    -0.06100
C333        C  0.80049105  0.40266297  0.63778480     0.20800
C334        C  0.80356680  0.35991110  0.59301182     0.18900
C335        C  0.82050228  0.34610791  0.56492244    -0.17600
C336        C  0.85094995  0.36041476  0.55339590    -0.19800
C337        C  0.86488279  0.38868504  0.56983848     0.20400
C338        C  0.89531937  0.40302045  0.55844445    -0.32900
C339        C  0.90920472  0.43151448  0.57466194     0.01100
C340        C  0.89244641  0.44572962  0.60270481    -0.24200
C341        C  0.77005344  0.38813100  0.64917958    -0.28800
C342        C  0.75613788  0.35958087  0.63280093     0.06800
C343        C  0.77306557  0.34563284  0.60472449    -0.27400
H344        H  0.80154065  0.44230966  0.67570046     0.11500
H345        H  0.85498720  0.46753975  0.65540190     0.12600
H346        H  0.81019687  0.32425498  0.55186758     0.11700
H347        H  0.86361129  0.34937185  0.53160716     0.11000
H348        H  0.90808355  0.39203370  0.53666749     0.16300
H349        H  0.90305219  0.46776711  0.61526161     0.12300
H350        H  0.75725695  0.39918882  0.67088094     0.15100
H351        H  0.76258586  0.32366277  0.59197547     0.14900
C352        C  0.79388771  0.36427011  0.42683946    -0.18000
C353        C  0.82539021  0.37547132  0.43896998    -0.20200
C354        C  0.84532949  0.39810816  0.41978813     0.20500
C355        C  0.83305000  0.41019359  0.38842326    -0.03100
C356        C  0.80122337  0.39888199  0.37618094    -0.06100
C357        C  0.78173883  0.37552344  0.39532230     0.20800
C358        C  0.78920225  0.41050979  0.34455878     0.18900
C359        C  0.80879308  0.43378533  0.32575967    -0.17600
C360        C  0.84026809  0.44505911  0.33791953    -0.19800
C361        C  0.85277761  0.43317093  0.36905164     0.20400
C362        C  0.88486526  0.44342435  0.38088880    -0.32900
C363        C  0.89769221  0.43073401  0.41168371     0.01100
C364        C  0.87751692  0.40844964  0.43119661    -0.24200
C365        C  0.75076456  0.36337003  0.38238110    -0.28800
C366        C  0.73887461  0.37421227  0.35047526     0.06800
C367        C  0.75811701  0.39824462  0.33200815    -0.27400
H368        H  0.77918673  0.34647843  0.44195910     0.11500
H369        H  0.83434143  0.36611313  0.46321433     0.12600
H370        H  0.79990845  0.44305081  0.30146616     0.11700
H371        H  0.85500222  0.46281314  0.32278533     0.11000
H372        H  0.90008986  0.46085469  0.36583213     0.16300
H373        H  0.88685656  0.39886414  0.45517760     0.12300
H374        H  0.73615935  0.34508837  0.39702239     0.15100
H375        H  0.74935720  0.40687406  0.30743379     0.14900
C376        C  0.83869696  0.56317569  0.33545878    -0.18000
C377        C  0.80634259  0.57352302  0.32512583    -0.20200
C378        C  0.78934666  0.59966305  0.34231511     0.20500
C379        C  0.80461128  0.61484243  0.37084058    -0.03100
C380        C  0.83730768  0.60443010  0.38125541    -0.06100
C381        C  0.85454142  0.57883843  0.36312756     0.20800
C382        C  0.85304077  0.62013391  0.40927496     0.18900
C383        C  0.83545067  0.64539671  0.42722234    -0.17600
C384        C  0.80303447  0.65580229  0.41682182    -0.19800
C385        C  0.78765206  0.64105859  0.38835258     0.20400
C386        C  0.75618477  0.65285315  0.37639137    -0.32900
C387        C  0.74160367  0.63897640  0.34692911     0.01100
C388        C  0.75791466  0.61165421  0.33072006    -0.24200
C389        C  0.88752659  0.56962694  0.37262392    -0.28800
C390        C  0.90369313  0.58550358  0.40009982     0.06800
C391        C  0.88619811  0.61056404  0.41853500    -0.27400
H392        H  0.85154491  0.54326027  0.32149638     0.11500
H393        H  0.79487065  0.56149314  0.30329265     0.12600
H394        H  0.84697931  0.65748587  0.44898115     0.11700
H395        H  0.79024958  0.67580994  0.43069684     0.11000
H396        H  0.74375132  0.67370053  0.38932703     0.16300
H397        H  0.74684460  0.60047884  0.30822554     0.12300
H398        H  0.90062608  0.55026013  0.35820139     0.15100
H399        H  0.89834751  0.62259192  0.44001130     0.14900
C400        C  0.67958329  0.21054477  0.55812234    -0.18000
C401        C  0.66595830  0.17992325  0.54638969    -0.20200
C402        C  0.63759767  0.16523262  0.56254427     0.20500
C403        C  0.62241783  0.18184239  0.59038018    -0.03100
C404        C  0.63606734  0.21273051  0.60211416    -0.06100
C405        C  0.66502103  0.22700198  0.58616462     0.20800
C406        C  0.62098158  0.22905065  0.63012268     0.18900
C407        C  0.59221960  0.21479536  0.64587478    -0.17600
C408        C  0.57874650  0.18418217  0.63429753    -0.19800
C409        C  0.59379156  0.16741577  0.60677059     0.20400
C410        C  0.58080788  0.13637139  0.59552899    -0.32900
C411        C  0.59598571  0.11948007  0.56809622     0.01100
C412        C  0.62425789  0.13414056  0.55156826    -0.24200
C413        C  0.67917063  0.25712104  0.59892242    -0.28800
C414        C  0.66464356  0.27305804  0.62740075     0.06800
C415        C  0.63519416  0.25906249  0.64238763    -0.27400
H416        H  0.70169269  0.22119624  0.54545613     0.11500
H417        H  0.67780185  0.16755788  0.52485430     0.12600
H418        H  0.58035174  0.22715820  0.66736660     0.11700
H419        H  0.55666264  0.17349881  0.64703103     0.11000
H420        H  0.55896713  0.12536536  0.60835635     0.16300
H421        H  0.63595012  0.12132548  0.53018903     0.12300
H422        H  0.70172217  0.26777348  0.58703551     0.15100
H423        H  0.62352987  0.27110441  0.66418344     0.14900
C424        C  0.36783068  0.18500506  0.54045959    -0.18000
C425        C  0.35841962  0.21741279  0.55149392    -0.20200
C426        C  0.37534121  0.23276954  0.57872990     0.20500
C427        C  0.40212946  0.21535844  0.59493324    -0.03100
C428        C  0.41165005  0.18259926  0.58378007    -0.06100
C429        C  0.39436236  0.16734728  0.55644116     0.20800
C430        C  0.43847131  0.16517366  0.59993003     0.18900
C431        C  0.45558945  0.18065417  0.62699063    -0.17600
C432        C  0.44609391  0.21305693  0.63808628    -0.19800
C433        C  0.41936131  0.23062395  0.62228557     0.20400
C434        C  0.40947622  0.26307091  0.63344196    -0.32900
C435        C  0.38251989  0.28056435  0.61761284     0.01100
C436        C  0.36578399  0.26513580  0.59010317    -0.24200
C437        C  0.40402760  0.13484275  0.54541035    -0.28800
C438        C  0.43087923  0.11735535  0.56123307     0.06800
C439        C  0.44785053  0.13269117  0.58861636    -0.27400
H440        H  0.35434726  0.17374686  0.51937700     0.11500
H441        H  0.33781251  0.23046912  0.53872938     0.12600
H442        H  0.47633439  0.16769612  0.63959363     0.11700
H443        H  0.45967343  0.22437093  0.65907125     0.11000
H444        H  0.42261801  0.27451929  0.65463222     0.16300
H445        H  0.34503642  0.27819376  0.57754379     0.12300
H446        H  0.39075636  0.12336299  0.52432655     0.15100
H447        H  0.46864235  0.11951217  0.60093241     0.14900
C448        C  0.45329545  0.17549666  0.32803862    -0.18000
C449        C  0.43943539  0.20529047  0.31474342    -0.20200
C450        C  0.40863612  0.21803859  0.32751262     0.20500
C451        C  0.39176432  0.20080505  0.35416577    -0.03100
C452        C  0.40569397  0.17070528  0.36751793    -0.06100
C453        C  0.43654390  0.15802518  0.35426807     0.20800
C454        C  0.38874686  0.15327348  0.39400657     0.18900
C455        C  0.35809677  0.16622173  0.40699337    -0.17600
C456        C  0.34427471  0.19613301  0.39375300    -0.19800
C457        C  0.36087343  0.21348913  0.36729525     0.20400
C458        C  0.34687865  0.24304621  0.35342033    -0.32900
C459        C  0.36313477  0.25993900  0.32629666     0.01100
C460        C  0.39422607  0.24747469  0.31377159    -0.24200
C461        C  0.45022391  0.12812106  0.36748649    -0.28800
C462        C  0.43362530  0.11065407  0.39387938     0.06800
C463        C  0.40284955  0.12329158  0.40703566    -0.27400
H464        H  0.47709575  0.16605299  0.31773014     0.11500
H465        H  0.45271294  0.21827101  0.29435966     0.12600
H466        H  0.34479678  0.15319349  0.42735695     0.11700
H467        H  0.32050939  0.20560770  0.40408362     0.11000
H468        H  0.32291756  0.25244870  0.36338454     0.16300
H469        H  0.40708417  0.26043611  0.29308574     0.12300
H470        H  0.47398506  0.11870679  0.35718960     0.17100
H471        H  0.38997719  0.10991018  0.42746677     0.14900
C472        C  0.66135457  0.22810808  0.42529658    -0.18000
C473        C  0.65126203  0.19590099  0.43652081    -0.20200
C474        C  0.62932110  0.17592181  0.41687737     0.20500
C475        C  0.61667240  0.18886938  0.38602768    -0.03100
C476        C  0.62683378  0.22145827  0.37471112    -0.06100
C477        C  0.64967860  0.24093846  0.39422055     0.20800
C478        C  0.61466958  0.23423211  0.34360303     0.18900
C479        C  0.59186202  0.21466314  0.32448126    -0.17600
C480        C  0.58175992  0.18239324  0.33570816    -0.19800
C481        C  0.59429466  0.16908718  0.36628140     0.20400
C482        C  0.58510587  0.13629435  0.37732108    -0.32900
C483        C  0.59817606  0.12296725  0.40778316     0.01100
C484        C  0.62007382  0.14314582  0.42745690    -0.24200
C485        C  0.66109964  0.27250398  0.38198030    -0.28800
C486        C  0.65004534  0.28499324  0.35040904     0.06800
C487        C  0.62615792  0.26593918  0.33177901    -0.27400
H488        H  0.67869730  0.24280658  0.44072550     0.11500
H489        H  0.66096267  0.18643361  0.46043835     0.12600
H490        H  0.58214309  0.22414567  0.30058180     0.11700
H491        H  0.56441279  0.16770665  0.32030666     0.11000
H492        H  0.56803432  0.12107903  0.36210408     0.16300
H493        H  0.63000793  0.13349461  0.45118408     0.12300
H494        H  0.67917348  0.28700961  0.39678449     0.15100
H495        H  0.61724422  0.27522640  0.30749248     0.14900
C496        C  0.45541403  0.82555181  0.63339025    -0.18000
C497        C  0.44572713  0.79304709  0.64427409    -0.20200
C498        C  0.42233250  0.77387595  0.62544713     0.20500
C499        C  0.40865503  0.78754768  0.59535289    -0.03100
C500        C  0.41837260  0.82026029  0.58442413    -0.06100
C501        C  0.44182057  0.83942231  0.60352924     0.20800
C502        C  0.40453802  0.83377280  0.55434021     0.18900
C503        C  0.38138163  0.81460324  0.53536816    -0.17600
C504        C  0.37172348  0.78226753  0.54621305    -0.19800
C505        C  0.38513757  0.76859548  0.57615044     0.20400
C506        C  0.37524132  0.73634302  0.58721184    -0.32900
C507        C  0.38845478  0.72251439  0.61725727     0.01100
C508        C  0.41219767  0.74138442  0.63620277    -0.24200
C509        C  0.45116858  0.87206260  0.59236769    -0.28800
C510        C  0.43718569  0.88564975  0.56245146     0.06800
C511        C  0.41400170  0.86625103  0.54364306    -0.27400
H512        H  0.47348116  0.83985016  0.64834755     0.11500
H513        H  0.45649520  0.78292756  0.66743749     0.12600
H514        H  0.37064006  0.82468712  0.51216793     0.11700
H515        H  0.35368177  0.76795660  0.53120015     0.11000
H516        H  0.35700343  0.72208101  0.57235507     0.16300
H517        H  0.42250866  0.73102754  0.65947758     0.12300
H518        H  0.46923121  0.88681907  0.60688720     0.15100
H519        H  0.40324990  0.87620622  0.52042632     0.14900
C520        C  0.67147186  0.79208142  0.54969042    -0.18000
C521        C  0.66123770  0.82505522  0.54136279    -0.20200
C522        C  0.63216654  0.83925075  0.55647756     0.20500
C523        C  0.61272737  0.81974389  0.57958024    -0.03100
C524        C  0.62302300  0.78645034  0.58793600    -0.06100
C525        C  0.65282223  0.77277286  0.57327855     0.20800
C526        C  0.60403488  0.76723786  0.61162590     0.18900
C527        C  0.57431882  0.78103320  0.62590192    -0.17600
C528        C  0.56407802  0.81401368  0.61757684    -0.19800
C529        C  0.58338500  0.83372052  0.59485442     0.20400
C530        C  0.57405625  0.86724698  0.58739857    -0.32900
C531        C  0.59357412  0.88701040  0.56475368     0.01100
C532        C  0.62241750  0.87271226  0.54916009    -0.24200
C533        C  0.66414165  0.74056102  0.58337882    -0.28800
C534        C  0.64639842  0.72196584  0.60837064     0.06800
C535        C  0.61573554  0.73508638  0.62155697    -0.27400
H536        H  0.69434989  0.78188772  0.53810080     0.11500
H537        H  0.67633037  0.83963601  0.52346205     0.12600
H538        H  0.55933533  0.76654529  0.64396653     0.11700
H539        H  0.54129453  0.82428029  0.62928647     0.11000
H540        H  0.55153420  0.87778395  0.59929388     0.16300
H541        H  0.63738574  0.88766917  0.53143289     0.12300
H542        H  0.68764463  0.73067775  0.57277369     0.15100
H543        H  0.60158250  0.72088077  0.64049843     0.14900
C544        C  0.65613539  0.81514910  0.43467702    -0.18000
C545        C  0.66662693  0.78365206  0.42216918    -0.20200
C546        C  0.65595721  0.77263960  0.39011720     0.20500
C547        C  0.63408570  0.79329539  0.37067536    -0.03100
C548        C  0.62354460  0.82507526  0.38326039    -0.06100
C549        C  0.63487148  0.83616442  0.41529211     0.20800
C550        C  0.60196292  0.84587247  0.36363818     0.18900
C551        C  0.59081368  0.83462973  0.33185002    -0.17600
C552        C  0.60133542  0.80316374  0.31934792    -0.19800
C553        C  0.62308302  0.78241629  0.33847281     0.20400
C554        C  0.63441327  0.75123383  0.32572554    -0.32900
C555        C  0.65686395  0.73081819  0.34458875     0.01100
C556        C  0.66717364  0.74157349  0.37697285    -0.24200
C557        C  0.62497847  0.86817774  0.42722878    -0.28800
C558        C  0.60386786  0.88917208  0.40755025     0.06800
C559        C  0.59215286  0.87768761  0.37598947    -0.27400
H560        H  0.66490005  0.82320409  0.45937695     0.11500
H561        H  0.68332912  0.76801584  0.43746441     0.12600
H562        H  0.57416059  0.85028645  0.31655254     0.11700
H563        H  0.59263258  0.79514875  0.29458903     0.11000
H564        H  0.62628630  0.74327332  0.30074889     0.16300
H565        H  0.68432025  0.72600660  0.39185387     0.12300
H566        H  0.63368008  0.87660449  0.45182318     0.15100
H567        H  0.57564978  0.89368013  0.36083058     0.14900
C568        C  0.47614187  0.81232359  0.34502099    -0.18000
C569        C  0.46631866  0.77935308  0.33608775    -0.20200
C570        C  0.43794074  0.76396273  0.35159726     0.20500
C571        C  0.41980541  0.78166084  0.37689601    -0.03100
C572        C  0.42963331  0.81498113  0.38581501    -0.06100
C573        C  0.45773970  0.83050628  0.36958489     0.20800
C574        C  0.41101117  0.83290126  0.41063992     0.18900
C575        C  0.38321111  0.81719692  0.42674425    -0.17600
C576        C  0.37350735  0.78422567  0.41793682    -0.19800
C577        C  0.39136024  0.76639250  0.39279220     0.20400
C578        C  0.38050742  0.73407647  0.38249657    -0.32900
C579        C  0.39733410  0.71691097  0.35607132     0.01100
C580        C  0.42671838  0.73168412  0.34147309    -0.24200
C581        C  0.46680226  0.86394445  0.37812085    -0.28800
C582        C  0.44814366  0.88208134  0.40272620     0.06800
C583        C  0.42035632  0.86625319  0.41888275    -0.27400
H584        H  0.49795152  0.82373175  0.33244988     0.11500
H585        H  0.48063105  0.76607434  0.31671379     0.12600
H586        H  0.36874233  0.83055861  0.44594087     0.11700
H587        H  0.35166977  0.77285802  0.43046350     0.11000
H588        H  0.35802002  0.72299906  0.39412288     0.16300
H589        H  0.44021366  0.71865851  0.32135388     0.12300
H590        H  0.48840529  0.87569113  0.36558768     0.15100
H591        H  0.40597227  0.87988509  0.43798513     0.14900
C592        C  0.58572506  0.34834488  0.19648402    -0.18000
C593        C  0.57438199  0.35857611  0.16449286    -0.20200
C594        C  0.58995999  0.38593191  0.14761815     0.20500
C595        C  0.61716283  0.40326280  0.16321227    -0.03100
C596        C  0.62863554  0.39290845  0.19555353    -0.06100
C597        C  0.61288533  0.36524945  0.21215398     0.20800
C598        C  0.65597246  0.41005169  0.21112702     0.18900
C599        C  0.67133725  0.43762140  0.19434290    -0.17600
C600        C  0.65993269  0.44792478  0.16232036    -0.19800
C601        C  0.63295553  0.43084011  0.14647060     0.20400
C602        C  0.62142846  0.44087655  0.11426045    -0.32900
C603        C  0.59421297  0.42377696  0.09859443     0.01100
C604        C  0.57872336  0.39626040  0.11547888    -0.24200
C605        C  0.62479359  0.35463408  0.24392281    -0.28800
C606        C  0.65251766  0.37104923  0.25946137     0.06800
C607        C  0.66771000  0.39906305  0.24296457    -0.27400
H608        H  0.57334274  0.32706260  0.20891227     0.11500
H609        H  0.55342604  0.34503272  0.15291107     0.12600
H610        H  0.69230667  0.45114492  0.20592104     0.11700
H611        H  0.67228671  0.46922372  0.14990372     0.11000
H612        H  0.63347810  0.46217744  0.10151943     0.16300
H613        H  0.55783162  0.38280588  0.10373023     0.12300
H614        H  0.61269821  0.33312876  0.25625869     0.15100
H615        H  0.68898393  0.41205679  0.25461424     0.14900
C616        C  0.59556681  0.66403283  0.14833779    -0.18000
C617        C  0.60596537  0.67543023  0.18025037    -0.20200
C618        C  0.62869194  0.65612370  0.19980599     0.20500
C619        C  0.64140283  0.62524812  0.18687929    -0.03100
C620        C  0.63103827  0.61383049  0.15466726    -0.06100
C621        C  0.60778794  0.63316274  0.13540599     0.20800
C622        C  0.64359795  0.58280398  0.14197978     0.18900
C623        C  0.66649509  0.56359868  0.16134606    -0.17600
C624        C  0.67671714  0.57488033  0.19324051    -0.19800
C625        C  0.66424741  0.60557960  0.20624621     0.20400
C626        C  0.67421640  0.61684146  0.23832638    -0.32900
C627        C  0.66171049  0.64756965  0.25152970     0.01100
C628        C  0.63887722  0.66706441  0.23205651    -0.24200
C629        C  0.59673928  0.62093644  0.10388808    -0.28800
C630        C  0.60873856  0.58968023  0.09146512     0.06800
C631        C  0.63257047  0.57111074  0.11044760    -0.27400
H632        H  0.57776108  0.67922936  0.13389046     0.11500
H633        H  0.59603220  0.69925803  0.18974427     0.12600
H634        H  0.67629494  0.53968055  0.15193329     0.11700
H635        H  0.69427958  0.55950735  0.20781167     0.11000
H636        H  0.69176357  0.60154060  0.25301283     0.16300
H637        H  0.62917447  0.69087396  0.24183983     0.12300
H638        H  0.57843794  0.63544385  0.08931925     0.15100
H639        H  0.64200355  0.54700568  0.10123910     0.14900
C640        C  0.46294040  0.65205007  0.20192668    -0.18000
C641        C  0.47291985  0.64332475  0.16906460    -0.20200
C642        C  0.45282880  0.62135501  0.14960759     0.20500
C643        C  0.42248603  0.60785450  0.16337906    -0.03100
C644        C  0.41242052  0.61666592  0.19654073    -0.06100
C645        C  0.43272161  0.63893854  0.21583734     0.20800
C646        C  0.38202130  0.60329588  0.21030824     0.18900
C647        C  0.36202875  0.58117654  0.19087942    -0.17600
C648        C  0.37208533  0.57231912  0.15803123    -0.19800
C649        C  0.40223844  0.58554793  0.14405004     0.20400
C650        C  0.41258562  0.57677811  0.11115948    -0.32900
C651        C  0.44280588  0.59017116  0.09733328     0.01100
C652        C  0.46268815  0.61254164  0.11668237    -0.24200
C653        C  0.42234528  0.64797559  0.24859311    -0.28800
C654        C  0.39188260  0.63508793  0.26240580     0.06800
C655        C  0.37201526  0.61250426  0.24313911    -0.27400
H656        H  0.47881714  0.66913545  0.21643283     0.11500
H657        H  0.49636361  0.65378503  0.15885374     0.12600
H658        H  0.33857830  0.57071805  0.20109596     0.11700
H659        H  0.35627732  0.55514828  0.14355591     0.11000
H660        H  0.39719454  0.55945439  0.09638772     0.16300
H661        H  0.48614363  0.62285433  0.10644289     0.12300
H662        H  0.43787654  0.66532607  0.26317287     0.15100
H663        H  0.34838147  0.60248805  0.25339721     0.14900
C664        C  0.41093629  0.32278947  0.16082088    -0.18000
C665        C  0.42359195  0.33769396  0.13111451    -0.20200
C666        C  0.41546473  0.37143142  0.12296706     0.20500
C667        C  0.39362188  0.39006675  0.14444509    -0.03100
C668        C  0.38090020  0.37505891  0.17439306    -0.06100
C669        C  0.38995925  0.34139494  0.18283411     0.20800
C670        C  0.35957927  0.39394363  0.19613901     0.18900
C671        C  0.35076934  0.42740338  0.18760622    -0.17600
C672        C  0.36341495  0.44229785  0.15794384    -0.19800
C673        C  0.38505625  0.42394275  0.13638202     0.20400
C674        C  0.39891923  0.43915271  0.10733880    -0.32900
C675        C  0.42160597  0.42111769  0.08651561     0.01100
C676        C  0.42938407  0.38713019  0.09415826    -0.24200
C677        C  0.37810801  0.32705774  0.21324890    -0.28800
C678        C  0.35701138  0.34584488  0.23508706     0.06800
C679        C  0.34768034  0.37917062  0.22620552    -0.27400
H680        H  0.41788967  0.29683716  0.16678625     0.11500
H681        H  0.44013585  0.32298062  0.11474390     0.12600
H682        H  0.33434828  0.44217401  0.20405274     0.11700
H683        H  0.35659716  0.46831198  0.15206871     0.11000
H684        H  0.39285177  0.46538052  0.10163173     0.16300
H685        H  0.44665143  0.37304441  0.07793888     0.12300
H686        H  0.38506288  0.30122046  0.21976668     0.15100
H687        H  0.33145523  0.39386300  0.24294216     0.14900
C688        C  0.66058610  0.56138750  0.75627717    -0.18000
C689        C  0.65102137  0.55079732  0.78880965    -0.20200
C690        C  0.62954957  0.57100339  0.80885206     0.20500
C691        C  0.61677528  0.60176695  0.79564019    -0.03100
C692        C  0.62639383  0.61244370  0.76272142    -0.06100
C693        C  0.64883818  0.59238019  0.74318933     0.20800
C694        C  0.61413366  0.64346908  0.74966456     0.18900
C695        C  0.59178029  0.66317462  0.76933295    -0.17600
C696        C  0.58222667  0.65258032  0.80194862    -0.19800
C697        C  0.59486337  0.62208282  0.81548974     0.20400
C698        C  0.58629986  0.61168818  0.84859913    -0.32900
C699        C  0.59958866  0.58135548  0.86219596     0.01100
C700        C  0.62095538  0.56107734  0.84196997    -0.24200
C701        C  0.65982727  0.60398746  0.71128706    -0.28800
C702        C  0.64862476  0.63539291  0.69846590     0.06800
C703        C  0.62510477  0.65460599  0.71755770    -0.27400
H704        H  0.67760365  0.54554249  0.74153397     0.11500
H705        H  0.66080673  0.52697384  0.79847902     0.12600
H706        H  0.58200787  0.68702551  0.75965378     0.11700
H707        H  0.56524199  0.66842299  0.81671942     0.11000
H708        H  0.56955096  0.62733485  0.86385831     0.16300
H709        H  0.63097317  0.53744903  0.85186768     0.12300
H710        H  0.67759333  0.58880068  0.69669617     0.15100
H711        H  0.61619225  0.67884688  0.70800239     0.14900
C712        C  0.58736516  0.34661484  0.81259770    -0.18000
C713        C  0.59998343  0.33484888  0.78170205    -0.20200
C714        C  0.62559490  0.35291837  0.76456457     0.20500
C715        C  0.63860540  0.38318720  0.77852559    -0.03100
C716        C  0.62589261  0.39504377  0.80966770    -0.06100
C717        C  0.60017064  0.37660411  0.82673157     0.20800
C718        C  0.63893639  0.42525228  0.82375187     0.18900
C719        C  0.66447145  0.44338806  0.80652060    -0.17600
C720        C  0.67712194  0.43159320  0.77557764    -0.19800
C721        C  0.66443948  0.40148047  0.76149316     0.20400
C722        C  0.67739881  0.38909784  0.73088632    -0.32900
C723        C  0.66485761  0.35867560  0.71711454     0.01100
C724        C  0.63868445  0.34096479  0.73390203    -0.24200
C725        C  0.58756251  0.38853193  0.85757912    -0.28800
C726        C  0.60022613  0.41866148  0.87157554     0.06800
C727        C  0.62606194  0.43683207  0.85473503    -0.27400
H728        H  0.56757498  0.33225212  0.82544959     0.11500
H729        H  0.58980162  0.31156839  0.77126285     0.12600
H730        H  0.67472355  0.46660206  0.81703744     0.11700
H731        H  0.69693947  0.44592817  0.76274357     0.11000
H732        H  0.69747825  0.40303071  0.71799279     0.16300
H733        H  0.62891091  0.31746850  0.72351529     0.12300
H734        H  0.56783296  0.37426904  0.87059615     0.15100
H735        H  0.63578398  0.46020487  0.86546608     0.14900
C736        C  0.45315076  0.35926092  0.80519303    -0.18000
C737        C  0.44462316  0.34826464  0.77262797    -0.20200
C738        C  0.42386509  0.36823894  0.75167502     0.20500
C739        C  0.41223780  0.40003845  0.76335758    -0.03100
C740        C  0.42087945  0.41117978  0.79628546    -0.06100
C741        C  0.44117529  0.39051350  0.81737337     0.20800
C742        C  0.40878518  0.44269116  0.80827118     0.18900
C743        C  0.38879917  0.46310164  0.78690815    -0.17600
C744        C  0.38014523  0.45201851  0.75433905    -0.19800
C745        C  0.39129880  0.42028950  0.74250757     0.20400
C746        C  0.38089322  0.40789791  0.71078746    -0.32900
C747        C  0.39100393  0.37539372  0.69963826     0.01100
C748        C  0.41351767  0.35633283  0.71982384    -0.24200
C749        C  0.44908810  0.40132014  0.85031537    -0.28800
C750        C  0.43694042  0.43252554  0.86266530     0.06800
C751        C  0.41678794  0.45311554  0.84139815    -0.27400
H752        H  0.46887309  0.34316164  0.82097505     0.11500
H753        H  0.45383329  0.32381369  0.76403893     0.12600
H754        H  0.37948227  0.48746738  0.79555452     0.11700
H755        H  0.36422054  0.46803888  0.73861066     0.11000
H756        H  0.36393275  0.42312098  0.69533319     0.16300
H757        H  0.42173192  0.33141962  0.71155044     0.12300
H758        H  0.46466847  0.38535643  0.86640070     0.15100
H759        H  0.40755352  0.47739962  0.85039372     0.14900
C760        C  0.47662221  0.63541791  0.78958136    -0.18000
C761        C  0.46566874  0.64462899  0.75726557    -0.20200
C762        C  0.43499080  0.63175056  0.74452257     0.20500
C763        C  0.41562084  0.60856446  0.76393817    -0.03100
C764        C  0.42655380  0.59944080  0.79656997    -0.06100
C765        C  0.45690283  0.61341186  0.80959442     0.20800
C766        C  0.40663522  0.57716678  0.81651755     0.18900
C767        C  0.37656816  0.56336922  0.80329162    -0.17600
C768        C  0.36575170  0.57235380  0.77079817    -0.19800
C769        C  0.38483093  0.59530996  0.75117035     0.20400
C770        C  0.37319234  0.60607163  0.71944701    -0.32900
C771        C  0.39174476  0.63022872  0.70066976     0.01100
C772        C  0.42291631  0.64241047  0.71306046    -0.24200
C773        C  0.46653835  0.60590630  0.84275297    -0.28800
C774        C  0.44611096  0.58484778  0.86311288     0.06800
C775        C  0.41667105  0.56986653  0.84966976    -0.27400
H776        H  0.50012173  0.64607707  0.79920088     0.11500
H777        H  0.48087573  0.66227079  0.74247884     0.12600
H778        H  0.36110797  0.54615038  0.81831899     0.11700
H779        H  0.34213395  0.56185875  0.76127570     0.11000
H780        H  0.34909467  0.59660595  0.71001000     0.16300
H781        H  0.43754187  0.66074831  0.69850791     0.12300
H782        H  0.48968692  0.61693412  0.85270027     0.15100
H783        H  0.40117631  0.55310606  0.86522023     0.14900
loop_ 
_geom_bond_atom_site_label_1 
_geom_bond_atom_site_label_2 
_geom_bond_distance 
_geom_bond_site_symmetry_2 
_ccdc_geom_bond_type 
C1           N19   1.345       .  A
C1           C38   1.456       .  S
C1          C774   1.464       .  S
N2           N19   1.320       .  A
N2           N24   1.317       .  A
N2          Co39   2.064       .  S
C3           N28   1.337       .  A
C3           C41   1.460       .  S
C3           H48   1.081       .  S
H4           C45   1.080       .  S
C5           N29   1.336       .  A
C5            C9   1.457       .  S
C5           H34   1.081       .  S
Co6          N24   2.067       .  S
Co6          N14   2.089       .  S
Co6          N46   2.080   1_556  S
Co6          N22   2.081   1_556  S
Co6         Cl50   2.456       .  S
N7           C45   1.342       .  A
N7           N14   1.320       .  A
N7           Co8   2.094       .  S
Co8          N11   2.070       .  S
Co8          N28   2.076   1_556  S
Co8          N15   2.096   1_556  S
Co8         Cl50   2.448       .  S
C9           N47   1.347       .  A
C9          C726   1.466       .  S
N10          N17   1.320       .  A
N10          N40   1.327       .  A
N10         Co43   2.101       .  S
N11          N29   1.318       .  A
N11          N47   1.322       .  A
N12          C41   1.351       .  A
N12          N22   1.325       .  A
H13          C38   1.080       .  S
N14          N35   1.326       .  A
N15          N33   1.322       .  A
N15          N20   1.326       .  A
C16          N20   1.352       .  A
C16          C44   1.464       .  S
C16         C603   1.485       .  S
N17          C32   1.343       .  A
N17         Co39   2.093       .  S
C18          N46   1.337       .  A
C18          C21   1.459       .  S
C18          H52   1.081       .  S
C21          N42   1.351       .  A
C21         C651   1.476       .  S
N22          N28   1.317       .  A
N23          C49   1.339       .  A
N23          N25   1.318       .  A
N23         Co39   2.072   1_554  S
N24          C38   1.336       .  A
N25          N53   1.323       .  A
N25         Co43   2.078   1_554  S
H26          C49   1.081       .  S
H27          C44   1.081       .  S
N29         Co43   2.067       .  S
N30          N42   1.325       .  A
N30          N46   1.321       .  A
N30         Co39   2.090   1_554  S
C31          N35   1.350       .  A
C31          C45   1.464       .  S
C31         C699   1.485       .  S
C32          C51   1.462       .  S
C32          H36   1.080       .  S
N33          C44   1.342       .  A
N33         Co43   2.096   1_554  S
C37          N53   1.349       .  A
C37          C49   1.459       .  S
C37         C675   1.472       .  S
Co39        Cl50   2.450       .  S
N40          C51   1.354       .  A
C41         C630   1.478       .  S
Co43        Cl50   2.453       .  S
C51         C750   1.488       .  S
C54          N72   1.350       .  A
C54          C91   1.460       .  S
C54         C510   1.476       .  S
N55          N72   1.326       .  A
N55          N77   1.318       .  A
N55         Co92   2.084   1_565  S
C56          N81   1.335       .  A
C56          C94   1.458       .  S
C56         H101   1.080       .  S
H57          C98   1.080       .  S
C58          N82   1.341       .  A
C58          C62   1.460       .  S
C58          H87   1.081       .  S
Co59         N77   2.075   1_545  S
Co59         N67   2.104   1_545  S
Co59         N99   2.099       .  S
Co59         N75   2.078       .  S
Co59       Cl103   2.451       .  S
N60          C98   1.341       .  A
N60          N67   1.320       .  A
N60         Co61   2.084   1_565  S
Co61         N64   2.077   1_545  S
Co61         N81   2.069       .  S
Co61         N68   2.094       .  S
Co61       Cl103   2.453       .  S
C62         N100   1.348       .  A
C62         C558   1.474       .  S
N63          N70   1.319       .  A
N63          N93   1.325       .  A
N63         Co96   2.089   1_565  S
N64          N82   1.318       .  A
N64         N100   1.322       .  A
N65          C94   1.350       .  A
N65          N75   1.324       .  A
H66          C91   1.080       .  S
N67          N88   1.327       .  A
N68          N86   1.320       .  A
N68          N73   1.328       .  A
C69          N73   1.353       .  A
C69          C97   1.462       .  S
C69         C483   1.486       .  S
N70          C85   1.338       .  A
N70         Co92   2.078   1_565  S
C71          N99   1.344       .  A
C71          C74   1.466       .  S
C71         H105   1.081       .  S
C74          N95   1.350       .  A
C74         C438   1.485       .  S
N75          N81   1.318       .  A
N76         C102   1.340       .  A
N76          N78   1.319       .  A
N76         Co92   2.083       .  S
N77          C91   1.336       .  A
N78         N106   1.322       .  A
N78         Co96   2.077       .  S
H79         C102   1.081       .  S
H80          C97   1.080       .  S
N82         Co96   2.078   1_565  S
N83          N95   1.324       .  A
N83          N99   1.320       .  A
N83         Co92   2.086       .  S
C84          N88   1.354       .  A
C84          C98   1.459       .  S
C84         C582   1.485       .  S
C85         C104   1.458       .  S
C85          H89   1.080       .  S
N86          C97   1.341       .  A
N86         Co96   2.092       .  S
C90         N106   1.347       .  A
C90         C102   1.462       .  S
C90         C411   1.475       .  S
Co92       Cl103   2.455       .  S
N93         C104   1.351       .  A
C94         C462   1.471       .  S
Co96       Cl103   2.451       .  S
C104        C531   1.478       .  S
C107        N125   1.350       .  A
C107        C144   1.462       .  S
C107        C315   1.481       .  S
N108        N125   1.325       .  A
N108        N130   1.320       .  A
N108       Co145   2.087   1_655  S
C109        N134   1.343       .  A
C109        C147   1.462       .  S
C109        H154   1.081       .  S
H110        C151   1.080       .  S
C111        N135   1.342       .  A
C111        C115   1.462       .  S
C111        H140   1.081       .  S
Co112       N130   2.088   1_455  S
Co112       N120   2.093   1_455  S
Co112       N152   2.090       .  S
Co112       N128   2.091       .  S
Co112      Cl156   2.450       .  S
N113        C151   1.334       .  A
N113        N120   1.318       .  A
N113       Co114   2.068   1_655  S
Co114       N117   2.091   1_455  S
Co114       N134   2.086       .  S
Co114       N121   2.073       .  S
Co114      Cl156   2.452       .  S
C115        N153   1.350       .  A
C115        C363   1.483       .  S
N116        N123   1.317       .  A
N116        N146   1.318       .  A
N116       Co149   2.066   1_655  S
N117        N135   1.320       .  A
N117        N153   1.325       .  A
N118        C147   1.349       .  A
N118        N128   1.323       .  A
H119        C144   1.080       .  S
N120        N141   1.327       .  A
N121        N139   1.317       .  A
N121        N126   1.321       .  A
C122        N126   1.349       .  A
C122        C150   1.456       .  S
C122        C291   1.467       .  S
N123        C138   1.342       .  A
N123       Co145   2.072   1_655  S
C124        N152   1.342       .  A
C124        C127   1.463       .  S
C124        H158   1.080       .  S
C127        N148   1.346       .  A
C127        C243   1.477       .  S
N128        N134   1.320       .  A
N129        C155   1.338       .  A
N129        N131   1.319       .  A
N129       Co145   2.085       .  S
N130        C144   1.342       .  A
N131        N159   1.327       .  A
N131       Co149   2.091       .  S
H132        C155   1.080       .  S
H133        C150   1.081       .  S
N135       Co149   2.090   1_655  S
N136        N148   1.323       .  A
N136        N152   1.319       .  A
N136       Co145   2.075       .  S
C137        N141   1.353       .  A
C137        C151   1.455       .  S
C137        C390   1.477       .  S
C138        C157   1.461       .  S
C138        H142   1.081       .  S
N139        C150   1.336       .  A
N139       Co149   2.063       .  S
C143        N159   1.353       .  A
C143        C155   1.460       .  S
C143        C219   1.482       .  S
Co145      Cl156   2.453       .  S
N146        C157   1.345       .  A
C147        C267   1.479       .  S
Co149      Cl156   2.447       .  S
C157        C339   1.467       .  S
C160        N161   1.362       .  A
C160        N165   1.362       .  A
C160        C366   1.490       .  S
N161        C162   1.361       .  A
C162        N163   1.358       .  A
C162        C486   1.489       .  S
N163        C164   1.359       .  A
C164        N165   1.360       .  A
C164        C606   1.489       .  S
C166        N167   1.358       .  A
C166        N171   1.357       .  A
C166        C387   1.483       .  S
N167        C168   1.358       .  A
C168        N169   1.358       .  A
C168        C627   1.483       .  S
N169        C170   1.360       .  A
C170        N171   1.358       .  A
C170        C555   1.481       .  S
C172        N173   1.350       .  A
C172        N177   1.353       .  A
C172        C723   1.471       .  S
N173        C174   1.354       .  A
C174        N175   1.362       .  A
C174        C342   1.475       .  S
N175        C176   1.361       .  A
C176        N177   1.356       .  A
C176        C414   1.481       .  S
C178        N179   1.359       .  A
C178        N183   1.364       .  A
C178        C579   1.488       .  S
N179        C180   1.357       .  A
C180        N181   1.354       .  A
C180        C654   1.481       .  S
N181        C182   1.356       .  A
C182        N183   1.363       .  A
C182        C270   1.486       .  S
C184        N185   1.356       .  A
C184        N189   1.353       .  A
C184        C507   1.479       .  S
N185        C186   1.358       .  A
C186        N187   1.357       .  A
C186        C246   1.479       .  S
N187        C188   1.358       .  A
C188        N189   1.357       .  A
C188        C771   1.469       .  S
C190        N191   1.359       .  A
C190        N195   1.363       .  A
C190        C747   1.490       .  S
N191        C192   1.359       .  A
C192        N193   1.358       .  A
C192        C222   1.487       .  S
N193        C194   1.360       .  A
C194        N195   1.363       .  A
C194        C435   1.491       .  S
C196        N197   1.358       .  A
C196        N201   1.364       .  A
C196        C702   1.487       .  S
N197        C198   1.358       .  A
C198        N199   1.358       .  A
C198        C534   1.484       .  S
N199        C200   1.359       .  A
C200        N201   1.363       .  A
C200        C318   1.490       .  S
C202        N203   1.361       .  A
C202        N207   1.356       .  A
C202        C459   1.476       .  S
N203        C204   1.359       .  A
C204        N205   1.355       .  A
C204        C678   1.475       .  S
N205        C206   1.354       .  A
C206        N207   1.353       .  A
C206        C294   1.474       .  S
C208        H224   1.084       .  S
C208        C209   1.401       .  A
C208        C213   1.405       .  A
C209        H225   1.083       .  S
C209        C210   1.404       .  A
C210        C220   1.406       .  A
C210        C211   1.412       .  A
C211        C217   1.410       .  A
C211        C212   1.413       .  A
C212        C214   1.411       .  A
C212        C213   1.411       .  A
C213        C221   1.405       .  A
C214        C223   1.402       .  A
C214        C215   1.403       .  A
C215        H226   1.084       .  S
C215        C216   1.397       .  A
C216        H227   1.083       .  S
C216        C217   1.403       .  A
C217        C218   1.400       .  A
C218        H228   1.083       .  S
C218        C219   1.407       .  A
C219        C220   1.408       .  A
C220        H229   1.084       .  S
C221        H230   1.084       .  S
C221        C222   1.410       .  A
C222        C223   1.408       .  A
C223        H231   1.084       .  S
C232        H248   1.084       .  S
C232        C233   1.394       .  A
C232        C237   1.401       .  A
C233        H249   1.080       .  S
C233        C234   1.402       .  A
C234        C244   1.399       .  A
C234        C235   1.411       .  A
C235        C241   1.410       .  A
C235        C236   1.410       .  A
C236        C238   1.412       .  A
C236        C237   1.410       .  A
C237        C245   1.395       .  A
C238        C247   1.404       .  A
C238        C239   1.404       .  A
C239        H250   1.084       .  S
C239        C240   1.400       .  A
C240        H251   1.082       .  S
C240        C241   1.405       .  A
C241        C242   1.404       .  A
C242        H252   1.084       .  S
C242        C243   1.409       .  A
C243        C244   1.403       .  A
C244        H253   1.082       .  S
C245        H254   1.085       .  S
C245        C246   1.405       .  A
C246        C247   1.409       .  A
C247        H255   1.084       .  S
C256        H272   1.084       .  S
C256        C257   1.399       .  A
C256        C261   1.404       .  A
C257        H273   1.083       .  S
C257        C258   1.403       .  A
C258        C268   1.404       .  A
C258        C259   1.412       .  A
C259        C265   1.409       .  A
C259        C260   1.412       .  A
C260        C262   1.413       .  A
C260        C261   1.409       .  A
C261        C269   1.400       .  A
C262        C271   1.406       .  A
C262        C263   1.403       .  A
C263        H274   1.083       .  S
C263        C264   1.399       .  A
C264        H275   1.080       .  S
C264        C265   1.402       .  A
C265        C266   1.402       .  A
C266        H276   1.084       .  S
C266        C267   1.407       .  A
C267        C268   1.406       .  A
C268        H277   1.083       .  S
C269        H278   1.084       .  S
C269        C270   1.411       .  A
C270        C271   1.407       .  A
C271        H279   1.084       .  S
C280        H296   1.083       .  S
C280        C281   1.395       .  A
C280        C285   1.402       .  A
C281        H297   1.084       .  S
C281        C282   1.402       .  A
C282        C292   1.396       .  A
C282        C283   1.411       .  A
C283        C289   1.411       .  A
C283        C284   1.406       .  A
C284        C286   1.411       .  A
C284        C285   1.410       .  A
C285        C293   1.396       .  A
C286        C295   1.399       .  A
C286        C287   1.403       .  A
C287        H298   1.084       .  S
C287        C288   1.397       .  A
C288        H299   1.083       .  S
C288        C289   1.403       .  A
C289        C290   1.398       .  A
C290        H300   1.082       .  S
C290        C291   1.405       .  A
C291        C292   1.403       .  A
C292        H301   1.085       .  S
C293        H302   1.084       .  S
C293        C294   1.405       .  A
C294        C295   1.407       .  A
C295        H303   1.084       .  S
C304        H320   1.084       .  S
C304        C305   1.400       .  A
C304        C309   1.404       .  A
C305        H321   1.083       .  S
C305        C306   1.404       .  A
C306        C316   1.404       .  A
C306        C307   1.411       .  A
C307        C313   1.412       .  A
C307        C308   1.414       .  A
C308        C310   1.410       .  A
C308        C309   1.412       .  A
C309        C317   1.407       .  A
C310        C319   1.403       .  A
C310        C311   1.404       .  A
C311        H322   1.084       .  S
C311        C312   1.399       .  A
C312        H323   1.084       .  S
C312        C313   1.403       .  A
C313        C314   1.404       .  A
C314        H324   1.083       .  S
C314        C315   1.407       .  A
C315        C316   1.408       .  A
C316        H325   1.084       .  S
C317        H326   1.084       .  S
C317        C318   1.409       .  A
C318        C319   1.411       .  A
C319        H327   1.084       .  S
C328        H344   1.083       .  S
C328        C329   1.397       .  A
C328        C333   1.404       .  A
C329        H345   1.085       .  S
C329        C330   1.402       .  A
C330        C340   1.401       .  A
C330        C331   1.414       .  A
C331        C337   1.409       .  A
C331        C332   1.406       .  A
C332        C334   1.413       .  A
C332        C333   1.408       .  A
C333        C341   1.397       .  A
C334        C343   1.399       .  A
C334        C335   1.402       .  A
C335        H346   1.083       .  S
C335        C336   1.395       .  A
C336        H347   1.084       .  S
C336        C337   1.402       .  A
C337        C338   1.394       .  A
C338        H348   1.084       .  S
C338        C339   1.405       .  A
C339        C340   1.403       .  A
C340        H349   1.085       .  S
C341        H350   1.084       .  S
C341        C342   1.410       .  A
C342        C343   1.403       .  A
C343        H351   1.084       .  S
C352        H368   1.084       .  S
C352        C353   1.400       .  A
C352        C357   1.404       .  A
C353        H369   1.084       .  S
C353        C354   1.404       .  A
C354        C364   1.404       .  A
C354        C355   1.411       .  A
C355        C361   1.412       .  A
C355        C356   1.414       .  A
C356        C358   1.411       .  A
C356        C357   1.411       .  A
C357        C365   1.405       .  A
C358        C367   1.405       .  A
C358        C359   1.404       .  A
C359        H370   1.084       .  S
C359        C360   1.400       .  A
C360        H371   1.084       .  S
C360        C361   1.404       .  A
C361        C362   1.405       .  A
C362        H372   1.084       .  S
C362        C363   1.408       .  A
C363        C364   1.407       .  A
C364        H373   1.083       .  S
C365        H374   1.084       .  S
C365        C366   1.409       .  A
C366        C367   1.410       .  A
C367        H375   1.084       .  S
C376        H392   1.084       .  S
C376        C377   1.396       .  A
C376        C381   1.403       .  A
C377        H393   1.084       .  S
C377        C378   1.402       .  A
C378        C388   1.400       .  A
C378        C379   1.412       .  A
C379        C385   1.410       .  A
C379        C380   1.410       .  A
C380        C382   1.413       .  A
C380        C381   1.410       .  A
C381        C389   1.397       .  A
C382        C391   1.405       .  A
C382        C383   1.404       .  A
C383        H394   1.084       .  S
C383        C384   1.400       .  A
C384        H395   1.083       .  S
C384        C385   1.405       .  A
C385        C386   1.403       .  A
C386        H396   1.084       .  S
C386        C387   1.410       .  A
C387        C388   1.407       .  A
C388        H397   1.084       .  S
C389        H398   1.082       .  S
C389        C390   1.407       .  A
C390        C391   1.406       .  A
C391        H399   1.084       .  S
C400        H416   1.083       .  S
C400        C401   1.400       .  A
C400        C405   1.404       .  A
C401        H417   1.084       .  S
C401        C402   1.404       .  A
C402        C412   1.402       .  A
C402        C403   1.410       .  A
C403        C409   1.412       .  A
C403        C404   1.409       .  A
C404        C406   1.409       .  A
C404        C405   1.413       .  A
C405        C413   1.405       .  A
C406        C415   1.396       .  A
C406        C407   1.403       .  A
C407        H418   1.083       .  S
C407        C408   1.395       .  A
C408        H419   1.084       .  S
C408        C409   1.402       .  A
C409        C410   1.399       .  A
C410        H420   1.083       .  S
C410        C411   1.403       .  A
C411        C412   1.408       .  A
C412        H421   1.085       .  S
C413        H422   1.084       .  S
C413        C414   1.408       .  A
C414        C415   1.408       .  A
C415        H423   1.083       .  S
C424        H440   1.084       .  S
C424        C425   1.399       .  A
C424        C429   1.403       .  A
C425        H441   1.084       .  S
C425        C426   1.404       .  A
C426        C436   1.404       .  A
C426        C427   1.410       .  A
C427        C433   1.412       .  A
C427        C428   1.415       .  A
C428        C430   1.410       .  A
C428        C429   1.412       .  A
C429        C437   1.405       .  A
C430        C439   1.405       .  A
C430        C431   1.405       .  A
C431        H442   1.083       .  S
C431        C432   1.401       .  A
C432        H443   1.084       .  S
C432        C433   1.404       .  A
C433        C434   1.407       .  A
C434        H444   1.084       .  S
C434        C435   1.410       .  A
C435        C436   1.410       .  A
C436        H445   1.084       .  S
C437        H446   1.083       .  S
C437        C438   1.407       .  A
C438        C439   1.409       .  A
C439        H447   1.084       .  S
C448        H464   1.084       .  S
C448        C449   1.396       .  A
C448        C453   1.402       .  A
C449        H465   1.083       .  S
C449        C450   1.402       .  A
C450        C460   1.399       .  A
C450        C451   1.412       .  A
C451        C457   1.409       .  A
C451        C452   1.408       .  A
C452        C454   1.413       .  A
C452        C453   1.410       .  A
C453        C461   1.395       .  A
C454        C463   1.402       .  A
C454        C455   1.403       .  A
C455        H466   1.084       .  S
C455        C456   1.398       .  A
C456        H467   1.084       .  S
C456        C457   1.404       .  A
C457        C458   1.399       .  A
C458        H468   1.084       .  S
C458        C459   1.409       .  A
C459        C460   1.405       .  A
C460        H469   1.084       .  S
C461        H470   1.082       .  S
C461        C462   1.404       .  A
C462        C463   1.405       .  A
C463        H471   1.085       .  S
C472        H488   1.084       .  S
C472        C473   1.399       .  A
C472        C477   1.403       .  A
C473        H489   1.084       .  S
C473        C474   1.404       .  A
C474        C484   1.403       .  A
C474        C475   1.410       .  A
C475        C481   1.412       .  A
C475        C476   1.414       .  A
C476        C478   1.410       .  A
C476        C477   1.412       .  A
C477        C485   1.405       .  A
C478        C487   1.405       .  A
C478        C479   1.405       .  A
C479        H490   1.084       .  S
C479        C480   1.401       .  A
C480        H491   1.083       .  S
C480        C481   1.405       .  A
C481        C482   1.408       .  A
C482        H492   1.083       .  S
C482        C483   1.409       .  A
C483        C484   1.408       .  A
C484        H493   1.083       .  S
C485        H494   1.084       .  S
C485        C486   1.408       .  A
C486        C487   1.411       .  A
C487        H495   1.084       .  S
C496        H512   1.083       .  S
C496        C497   1.401       .  A
C496        C501   1.405       .  A
C497        H513   1.083       .  S
C497        C498   1.405       .  A
C498        C508   1.404       .  A
C498        C499   1.411       .  A
C499        C505   1.411       .  A
C499        C500   1.409       .  A
C500        C502   1.410       .  A
C500        C501   1.412       .  A
C501        C509   1.406       .  A
C502        C511   1.395       .  A
C502        C503   1.402       .  A
C503        H514   1.084       .  S
C503        C504   1.394       .  A
C504        H515   1.084       .  S
C504        C505   1.401       .  A
C505        C506   1.396       .  A
C506        H516   1.085       .  S
C506        C507   1.404       .  A
C507        C508   1.410       .  A
C508        H517   1.084       .  S
C509        H518   1.083       .  S
C509        C510   1.408       .  A
C510        C511   1.404       .  A
C511        H519   1.083       .  S
C520        H536   1.084       .  S
C520        C521   1.398       .  A
C520        C525   1.404       .  A
C521        H537   1.083       .  S
C521        C522   1.403       .  A
C522        C532   1.402       .  A
C522        C523   1.412       .  A
C523        C529   1.411       .  A
C523        C524   1.411       .  A
C524        C526   1.411       .  A
C524        C525   1.411       .  A
C525        C533   1.402       .  A
C526        C535   1.403       .  A
C526        C527   1.404       .  A
C527        H538   1.083       .  S
C527        C528   1.399       .  A
C528        H539   1.084       .  S
C528        C529   1.404       .  A
C529        C530   1.401       .  A
C530        H540   1.083       .  S
C530        C531   1.407       .  A
C531        C532   1.406       .  A
C532        H541   1.084       .  S
C533        H542   1.085       .  S
C533        C534   1.408       .  A
C534        C535   1.409       .  A
C535        H543   1.083       .  S
C544        H560   1.083       .  S
C544        C545   1.398       .  A
C544        C549   1.403       .  A
C545        H561   1.084       .  S
C545        C546   1.404       .  A
C546        C556   1.401       .  A
C546        C547   1.411       .  A
C547        C553   1.411       .  A
C547        C548   1.410       .  A
C548        C550   1.411       .  A
C548        C549   1.412       .  A
C549        C557   1.402       .  A
C550        C559   1.400       .  A
C550        C551   1.403       .  A
C551        H562   1.083       .  S
C551        C552   1.397       .  A
C552        H563   1.084       .  S
C552        C553   1.403       .  A
C553        C554   1.401       .  A
C554        H564   1.084       .  S
C554        C555   1.407       .  A
C555        C556   1.408       .  A
C556        H565   1.084       .  S
C557        H566   1.083       .  S
C557        C558   1.406       .  A
C558        C559   1.405       .  A
C559        H567   1.084       .  S
C568        H584   1.084       .  S
C568        C569   1.401       .  A
C568        C573   1.405       .  A
C569        H585   1.083       .  S
C569        C570   1.405       .  A
C570        C580   1.405       .  A
C570        C571   1.410       .  A
C571        C577   1.412       .  A
C571        C572   1.414       .  A
C572        C574   1.411       .  A
C572        C573   1.412       .  A
C573        C581   1.406       .  A
C574        C583   1.403       .  A
C574        C575   1.403       .  A
C575        H586   1.083       .  S
C575        C576   1.398       .  A
C576        H587   1.084       .  S
C576        C577   1.403       .  A
C577        C578   1.404       .  A
C578        H588   1.084       .  S
C578        C579   1.407       .  A
C579        C580   1.412       .  A
C580        H589   1.083       .  S
C581        H590   1.083       .  S
C581        C582   1.410       .  A
C582        C583   1.406       .  A
C583        H591   1.084       .  S
C592        H608   1.084       .  S
C592        C593   1.398       .  A
C592        C597   1.403       .  A
C593        H609   1.084       .  S
C593        C594   1.403       .  A
C594        C604   1.403       .  A
C594        C595   1.411       .  A
C595        C601   1.411       .  A
C595        C596   1.414       .  A
C596        C598   1.412       .  A
C596        C597   1.410       .  A
C597        C605   1.402       .  A
C598        C607   1.407       .  A
C598        C599   1.405       .  A
C599        H610   1.084       .  S
C599        C600   1.401       .  A
C600        H611   1.083       .  S
C600        C601   1.405       .  A
C601        C602   1.406       .  A
C602        H612   1.084       .  S
C602        C603   1.409       .  A
C603        C604   1.407       .  A
C604        H613   1.083       .  S
C605        H614   1.084       .  S
C605        C606   1.409       .  A
C606        C607   1.410       .  A
C607        H615   1.084       .  S
C616        H632   1.083       .  S
C616        C617   1.400       .  A
C616        C621   1.404       .  A
C617        H633   1.084       .  S
C617        C618   1.404       .  A
C618        C628   1.404       .  A
C618        C619   1.411       .  A
C619        C625   1.411       .  A
C619        C620   1.411       .  A
C620        C622   1.411       .  A
C620        C621   1.412       .  A
C621        C629   1.405       .  A
C622        C631   1.398       .  A
C622        C623   1.402       .  A
C623        H634   1.084       .  S
C623        C624   1.396       .  A
C624        H635   1.084       .  S
C624        C625   1.403       .  A
C625        C626   1.400       .  A
C626        H636   1.084       .  S
C626        C627   1.407       .  A
C627        C628   1.409       .  A
C628        H637   1.084       .  S
C629        H638   1.084       .  S
C629        C630   1.407       .  A
C630        C631   1.405       .  A
C631        H639   1.083       .  S
C640        H656   1.083       .  S
C640        C641   1.397       .  A
C640        C645   1.403       .  A
C641        H657   1.084       .  S
C641        C642   1.403       .  A
C642        C652   1.399       .  A
C642        C643   1.410       .  A
C643        C649   1.412       .  A
C643        C644   1.410       .  A
C644        C646   1.410       .  A
C644        C645   1.412       .  A
C645        C653   1.401       .  A
C646        C655   1.401       .  A
C646        C647   1.404       .  A
C647        H658   1.084       .  S
C647        C648   1.399       .  A
C648        H659   1.083       .  S
C648        C649   1.403       .  A
C649        C650   1.403       .  A
C650        H660   1.084       .  S
C650        C651   1.406       .  A
C651        C652   1.406       .  A
C652        H661   1.082       .  S
C653        H662   1.084       .  S
C653        C654   1.406       .  A
C654        C655   1.409       .  A
C655        H663   1.084       .  S
C664        H680   1.084       .  S
C664        C665   1.398       .  A
C664        C669   1.403       .  A
C665        H681   1.084       .  S
C665        C666   1.403       .  A
C666        C676   1.401       .  A
C666        C667   1.411       .  A
C667        C673   1.412       .  A
C667        C668   1.409       .  A
C668        C670   1.410       .  A
C668        C669   1.412       .  A
C669        C677   1.402       .  A
C670        C679   1.398       .  A
C670        C671   1.403       .  A
C671        H682   1.084       .  S
C671        C672   1.397       .  A
C672        H683   1.084       .  S
C672        C673   1.403       .  A
C673        C674   1.399       .  A
C674        H684   1.083       .  S
C674        C675   1.404       .  A
C675        C676   1.405       .  A
C676        H685   1.085       .  S
C677        H686   1.084       .  S
C677        C678   1.405       .  A
C678        C679   1.407       .  A
C679        H687   1.085       .  S
C688        H704   1.084       .  S
C688        C689   1.398       .  A
C688        C693   1.403       .  A
C689        H705   1.083       .  S
C689        C690   1.403       .  A
C690        C700   1.403       .  A
C690        C691   1.411       .  A
C691        C697   1.412       .  A
C691        C692   1.414       .  A
C692        C694   1.410       .  A
C692        C693   1.412       .  A
C693        C701   1.404       .  A
C694        C703   1.405       .  A
C694        C695   1.405       .  A
C695        H706   1.084       .  S
C695        C696   1.401       .  A
C696        H707   1.083       .  S
C696        C697   1.405       .  A
C697        C698   1.407       .  A
C698        H708   1.084       .  S
C698        C699   1.409       .  A
C699        C700   1.406       .  A
C700        H709   1.083       .  S
C701        H710   1.084       .  S
C701        C702   1.406       .  A
C702        C703   1.411       .  A
C703        H711   1.084       .  S
C712        H728   1.084       .  S
C712        C713   1.395       .  A
C712        C717   1.402       .  A
C713        H729   1.083       .  S
C713        C714   1.402       .  A
C714        C724   1.396       .  A
C714        C715   1.411       .  A
C715        C721   1.411       .  A
C715        C716   1.406       .  A
C716        C718   1.412       .  A
C716        C717   1.411       .  A
C717        C725   1.395       .  A
C718        C727   1.399       .  A
C718        C719   1.403       .  A
C719        H730   1.083       .  S
C719        C720   1.397       .  A
C720        H731   1.084       .  S
C720        C721   1.403       .  A
C721        C722   1.398       .  A
C722        H732   1.084       .  S
C722        C723   1.407       .  A
C723        C724   1.404       .  A
C724        H733   1.084       .  S
C725        H734   1.083       .  S
C725        C726   1.402       .  A
C726        C727   1.405       .  A
C727        H735   1.084       .  S
C736        H752   1.083       .  S
C736        C737   1.399       .  A
C736        C741   1.404       .  A
C737        H753   1.084       .  S
C737        C738   1.403       .  A
C738        C748   1.404       .  A
C738        C739   1.411       .  A
C739        C745   1.411       .  A
C739        C740   1.415       .  A
C740        C742   1.411       .  A
C740        C741   1.411       .  A
C741        C749   1.405       .  A
C742        C751   1.408       .  A
C742        C743   1.405       .  A
C743        H754   1.083       .  S
C743        C744   1.402       .  A
C744        H755   1.084       .  S
C744        C745   1.405       .  A
C745        C746   1.407       .  A
C746        H756   1.085       .  S
C746        C747   1.412       .  A
C747        C748   1.408       .  A
C748        H757   1.084       .  S
C749        H758   1.083       .  S
C749        C750   1.407       .  A
C750        C751   1.411       .  A
C751        H759   1.083       .  S
C760        H776   1.084       .  S
C760        C761   1.394       .  A
C760        C765   1.401       .  A
C761        H777   1.083       .  S
C761        C762   1.402       .  A
C762        C772   1.394       .  A
C762        C763   1.410       .  A
C763        C769   1.412       .  A
C763        C764   1.405       .  A
C764        C766   1.411       .  A
C764        C765   1.412       .  A
C765        C773   1.394       .  A
C766        C775   1.397       .  A
C766        C767   1.403       .  A
C767        H778   1.083       .  S
C767        C768   1.397       .  A
C768        H779   1.084       .  S
C768        C769   1.403       .  A
C769        C770   1.399       .  A
C770        H780   1.084       .  S
C770        C771   1.405       .  A
C771        C772   1.404       .  A
C772        H781   1.084       .  S
C773        H782   1.083       .  S
C773        C774   1.402       .  A
C774        C775   1.404       .  A
C775        H783   1.085       .  S
