geometry optimzed in LAMMPS
_audit_creation_date              2020-12-01 
_audit_creation_method            'lammps2cif' 
_symmetry_space_group_name_H-M    'P1' 
_symmetry_Int_Tables_number       1 
_symmetry_cell_setting            triclinic 
loop_ 
_symmetry_equiv_pos_as_xyz 
  x,y,z 
_cell_length_a                    36.83804004 
_cell_length_b                    36.78569840080066 
_cell_length_c                    56.358973661400086 
_cell_angle_alpha                 89.90036606715584 
_cell_angle_beta                  90.3739871517819 
_cell_angle_gamma                 90.68321758017382 
loop_ 
_atom_site_label 
_atom_site_type_symbol 
_atom_site_fract_x 
_atom_site_fract_y 
_atom_site_fract_z 
_atom_site_charge 
C1          C  0.24880533  0.49937195  0.24948859    -0.02600
C2          C  0.46707766  0.24005998  0.98860658     0.02200
C3          C  0.46716736  0.24504793  0.01338209     0.02200
C4          C  0.99990476  0.24699693  0.02531651    -0.18400
C5          C  0.03315965  0.24601731  0.01334711     0.02200
C6          C  0.03314796  0.23884494  0.98876812     0.02200
C7          C  0.00003272  0.23574691  0.97651970    -0.18400
H8          H  0.00008943  0.23233532  0.95742034     0.04200
H9          H  0.99976575  0.25081643  0.04438216     0.04200
C10         C  0.25208640  0.99939306  0.74968183    -0.02600
C11         C  0.99832926  0.24821866  0.75031836    -0.02600
C12         C  0.24063990  0.46753136  0.98869088     0.02200
C13         C  0.24424475  0.46695540  0.01355241     0.02200
C14         C  0.24378349  0.49982602  0.02598065    -0.18400
C15         C  0.24313168  0.03327892  0.01407519     0.02200
C16         C  0.24222305  0.03385252  0.98903949     0.02200
C17         C  0.24023069  0.50088346  0.97672881    -0.18400
H18         H  0.23937081  0.50115722  0.95750227     0.04200
H19         H  0.24488088  0.49940905  0.04521031     0.04200
C20         C  0.35719782  0.25754078  0.91631378     0.42400
N21         N  0.32555645  0.24007640  0.88596498     0.01300
C22         C  0.20884433  0.34850009  0.82025840    -0.06600
H23         H  0.18231384  0.34050637  0.91055599     0.06700
C24         C  0.15976857  0.20948784  0.90565055    -0.07000
Co25       Co  0.29100222  0.30242788  0.86101032     0.74200
N26         N  0.22432511  0.32173608  0.88752716    -0.26200
Co27       Co  0.19733478  0.29226058  0.86151915     0.74100
C28         C  0.14489465  0.24063756  0.91825836     0.42500
N29         N  0.23870617  0.17324206  0.88582651     0.00900
N30         N  0.17353904  0.25942708  0.88740638     0.01000
N31         N  0.27007585  0.35413096  0.82072421    -0.47000
H32         H  0.34160088  0.31757638  0.90921374     0.06700
N33         N  0.25986341  0.32588356  0.88753198     0.01300
N34         N  0.17045486  0.26126251  0.83585632     0.01000
C35         C  0.12995659  0.24364351  0.81088218     0.42600
N36         N  0.27422163  0.17757630  0.88561416    -0.25600
C37         C  0.34559260  0.29221357  0.81945795    -0.06500
N38         N  0.34648298  0.22821856  0.90345388    -0.46700
N39         N  0.14429844  0.27314038  0.82171970    -0.46900
C40         C  0.36475774  0.26137039  0.80900620     0.42400
N41         N  0.25879949  0.32870186  0.83573966     0.01200
N42         N  0.27271381  0.17707085  0.83399870    -0.25600
N43         N  0.32177335  0.27559679  0.88639836    -0.26100
N44         N  0.23693437  0.17375075  0.83399079     0.00900
H45         H  0.31445936  0.14849607  0.81519753     0.06800
H46         H  0.14326786  0.18334313  0.81700378     0.06800
N47         N  0.22303973  0.32507204  0.83601369    -0.26200
N48         N  0.17709869  0.22384540  0.88696282    -0.25800
N49         N  0.32530321  0.24158880  0.83426350     0.01300
C50         C  0.24232632  0.35487698  0.91838401     0.42600
C51         C  0.28847639  0.15974087  0.90410619    -0.07000
N52         N  0.17351912  0.22547652  0.83545141    -0.25800
H53         H  0.15811543  0.18084642  0.90984603     0.06800
N54         N  0.27176759  0.34579631  0.90559423    -0.47000
H55         H  0.31705072  0.15965648  0.90826508     0.06800
C56         C  0.25413760  0.13501357  0.80786613     0.42500
C57         C  0.34054561  0.28914242  0.90485032    -0.06500
Co58       Co  0.29997615  0.20866128  0.85975953     0.73800
N59         N  0.22755031  0.15282373  0.90379903    -0.46700
C60         C  0.24016242  0.36739917  0.81001923     0.42700
N61         N  0.35044364  0.23108982  0.81915607    -0.46700
Co62       Co  0.20616312  0.19850793  0.86035888     0.73900
C63         C  0.14904917  0.21189908  0.81995250    -0.07000
C64         C  0.21078778  0.33913659  0.90621822    -0.06600
N65         N  0.32219902  0.27729634  0.83497278    -0.26100
N66         N  0.15427417  0.27054171  0.90569554    -0.46900
H67         H  0.18020785  0.35343912  0.81754263     0.06800
C68         C  0.28603649  0.15365425  0.81804954    -0.07000
Cl69       Cl  0.24862273  0.25045164  0.86033730    -0.50000
C70         C  0.25740101  0.14301909  0.91628408     0.42500
H71         H  0.34973984  0.32104114  0.81719426     0.06700
N72         N  0.22488788  0.14869894  0.81891182    -0.46700
C73         C  0.25483607  0.36588727  0.19283634     0.42400
N74         N  0.26854261  0.32784807  0.16565602     0.01300
C75         C  0.15661947  0.21805643  0.09719796    -0.06600
H76         H  0.14253025  0.19413314  0.18720124     0.06700
C77         C  0.28101404  0.15399953  0.18501769    -0.07000
Co78       Co  0.20279688  0.29744364  0.14088444     0.74200
N79         N  0.17461850  0.23327021  0.16761224    -0.26200
Co80       Co  0.20291989  0.20325869  0.14254557     0.74100
C81         C  0.24855851  0.13872390  0.19626648     0.42500
N82         N  0.32613576  0.23490381  0.16687047     0.00900
N83         N  0.23271617  0.17625426  0.16882907     0.01000
N84         N  0.15752658  0.27943107  0.09629095    -0.47000
H85         H  0.19358506  0.35731359  0.18630658     0.06700
N86         N  0.17498883  0.26916644  0.16716300     0.01300
N87         N  0.23169969  0.17486375  0.11706737     0.01000
C88         C  0.24597937  0.14110936  0.08764094     0.42600
N89         N  0.32624439  0.27077666  0.16612201    -0.25600
C90         C  0.21768808  0.34204856  0.09563351    -0.06500
N91         N  0.28284465  0.35127515  0.18102321    -0.46700
N92         N  0.21776770  0.15452070  0.09987716    -0.46900
C93         C  0.24955880  0.35244922  0.08193945     0.42400
N94         N  0.17499379  0.26681928  0.11517490     0.01200
N95         N  0.32349795  0.26911015  0.11454201    -0.25600
N96         N  0.23267893  0.32721850  0.16603625    -0.26100
N97         N  0.32407489  0.23333251  0.11493285     0.00900
H98         H  0.34629487  0.30940616  0.09131316     0.06800
H99         H  0.30723096  0.15024552  0.09493057     0.06800
N100        N  0.17510804  0.23100174  0.11597102    -0.26200
N101        N  0.26857319  0.17679611  0.16834957    -0.25800
N102        N  0.26654141  0.32460289  0.11358366     0.01300
C103        C  0.13608522  0.25542414  0.19382701     0.42600
C104        C  0.34999345  0.28328684  0.18237430    -0.07000
N105        N  0.26744402  0.17563697  0.11688150    -0.25800
H106        H  0.30916021  0.14674576  0.18736830     0.06800
N107        N  0.15176138  0.28347043  0.18222110    -0.47000
H108        H  0.35776312  0.31150625  0.18446448     0.06800
C109        C  0.35501109  0.24834606  0.08404939     0.42500
C110        C  0.22151125  0.35046816  0.18270963    -0.06500
Co111      Co  0.29677953  0.29873822  0.14006931     0.73800
N112        N  0.34915265  0.22183337  0.18280229    -0.46700
C113        C  0.14590122  0.25020709  0.08372260     0.42700
N114        N  0.27897998  0.34158692  0.09447357    -0.46700
Co115      Co  0.29712961  0.20464733  0.14184324     0.73900
C116        C  0.27905939  0.15506217  0.09901875    -0.07000
C117        C  0.15061734  0.22206098  0.18390702    -0.06600
N118        N  0.23083716  0.32427201  0.11443838    -0.26100
N119        N  0.21968533  0.15323040  0.18487062    -0.46900
H120        H  0.15175371  0.18959666  0.09341012     0.06800
C121        C  0.34225499  0.28111116  0.09584041    -0.07000
Cl122      Cl  0.24991882  0.25101745  0.14155818    -0.50000
C123        C  0.36475744  0.25070902  0.19374810     0.42500
H124        H  0.18927071  0.34665736  0.09205796     0.06700
N125        N  0.34285409  0.21977248  0.09707562    -0.46700
C126        C  0.50493549  0.38451352  0.69299609     0.42400
N127        N  0.48821205  0.42295495  0.66639842     0.01300
C128        C  0.09302602  0.03814849  0.59700293    -0.06600
H129        H  0.10486397  0.06353676  0.68687629     0.06700
C130        C  0.46785364  0.09684437  0.68371714    -0.07000
Co131      Co  0.05162175  0.45596915  0.64013973     0.74200
N132        N  0.07654229  0.02210174  0.66662394    -0.26200
Co133      Co  0.04592719  0.04987775  0.64129225     0.74100
C134        C  0.50045236  0.11334127  0.69420851     0.42500
N135        N  0.42572858  0.01245357  0.66723209     0.00900
N136        N  0.01604267  0.07565059  0.66733880     0.01000
N137        N  0.09747893  0.47701556  0.59632184    -0.47000
H138        H  0.06584563  0.39510679  0.68404744     0.06700
N139        N  0.07872998  0.48627884  0.66629368     0.01300
N140        N  0.01482336  0.07611346  0.61565816     0.01000
C141        C  0.99805318  0.10724994  0.58535352     0.42600
N142        N  0.42752049  0.47666970  0.66684105    -0.25600
C143        C  0.03546942  0.40930946  0.59500197    -0.06500
N144        N  0.47579446  0.39892341  0.68195700    -0.46700
N145        N  0.02720953  0.09621659  0.59792898    -0.38900
C146        C  0.00275591  0.39479113  0.58335098     0.42400
N147        N  0.07736660  0.48798931  0.61433125     0.01200
N148        N  0.42792166  0.47715008  0.61522197    -0.25600
N149        N  0.02432605  0.42470176  0.66573153    -0.26100
N150        N  0.42585993  0.01284859  0.61513238     0.00900
H151        H  0.40593385  0.43531851  0.59288495     0.06800
H152        H  0.43771969  0.09516594  0.59277920     0.06800
N153        N  0.07461757  0.02362549  0.61506422    -0.26200
N154        N  0.48020646  0.07387794  0.66724398    -0.25800
N155        N  0.48740516  0.42467297  0.61457111     0.01300
C156        C  0.11581860  0.00295996  0.69383669     0.42600
C157        C  0.40472484  0.46310734  0.68312349    -0.07000
N158        N  0.47921483  0.07345785  0.61563842    -0.25800
H159        H  0.43963586  0.10305714  0.68680892     0.06800
N160        N  0.10256196  0.47381630  0.68192028    -0.47000
H161        H  0.39875579  0.43444455  0.68521113     0.06800
C162        C  0.39571797  0.99582585  0.58411438     0.42500
C163        C  0.03746817  0.40130205  0.68184580    -0.06500
Co164      Co  0.45728788  0.44977551  0.64092361     0.73800
N165        N  0.40224986  0.02436580  0.68303804    -0.46700
C166        C  0.10857650  0.00730745  0.58450265     0.42700
N167        N  0.47410806  0.40548867  0.59661336    -0.46700
Co168      Co  0.45206960  0.04367586  0.64143179     0.73900
C169        C  0.46613451  0.09238440  0.59721920    -0.07000
C170        C  0.09918081  0.03507327  0.68339937    -0.06600
N171        N  0.02333792  0.42735073  0.61397334    -0.26100
N172        N  0.02912154  0.09952838  0.68281267    -0.46900
H173        H  0.09463072  0.06691081  0.59353711     0.06800
C174        C  0.40933816  0.46385105  0.59661972    -0.07000
Cl175      Cl  0.50167884  0.99979758  0.64120306    -0.50000
C176        C  0.38808688  0.99487535  0.69418916     0.42500
H177        H  0.06364536  0.40642869  0.59022303     0.06700
N178        N  0.40664614  0.02513175  0.59693440    -0.46700
C179        C  0.11664034  0.00083955  0.30910538     0.42400
N180        N  0.07649776  0.01698846  0.33440899     0.01300
C181        C  0.46487582  0.40706939  0.40274458    -0.06600
H182        H  0.43810733  0.39505842  0.31369927     0.06700
C183        C  0.40171441  0.03550545  0.31691767    -0.07000
Co184      Co  0.04373741  0.45252403  0.35919824     0.74200
N185        N  0.47864860  0.42632636  0.33291205    -0.26200
Co186      Co  0.45036728  0.45588099  0.35841522     0.74100
C187        C  0.38481834  0.00323884  0.30628932     0.42500
N188        N  0.48563536  0.07880813  0.33443169     0.00900
N189        N  0.42354196  0.48666140  0.33267529     0.01000
N190        N  0.02574399  0.40584943  0.40237049    -0.47000
H191        H  0.10451249  0.44014247  0.31582430     0.06700
N192        N  0.01410065  0.42535563  0.33303589     0.01300
N193        N  0.42393923  0.48557802  0.38431946     0.01000
C194        C  0.39199409  0.00061802  0.41441507     0.42600
N195        N  0.02112447  0.07740690  0.33454332    -0.25600
C196        C  0.08970069  0.46601887  0.40427544    -0.06500
N197        N  0.10168362  0.02984752  0.31983180    -0.46700
N198        N  0.40400651  0.47212898  0.40174701    -0.46900
C199        C  0.10379479  0.99754196  0.41711093     0.42400
N200        N  0.01299152  0.42554267  0.38461975     0.01200
N201        N  0.02063219  0.07418027  0.38608229    -0.25600
N202        N  0.07442999  0.48112646  0.33422517    -0.26100
N203        N  0.48541867  0.07585145  0.38620890     0.00900
H204        H  0.06200553  0.09495990  0.40945725     0.06800
H205        H  0.40266643  0.06172105  0.40738878     0.06800
N206        N  0.47768079  0.42676499  0.38451086    -0.26200
N207        N  0.42519459  0.02259478  0.33310890    -0.25800
N208        N  0.07438905  0.01546437  0.38627856     0.01300
C209        C  0.49892712  0.38562881  0.30731721     0.42600
C210        C  0.03407827  0.10210558  0.31911214    -0.07000
N211        N  0.42580822  0.02134037  0.38467907    -0.25800
H212        H  0.39515924  0.06384080  0.31430798     0.06800
N213        N  0.02723421  0.40094947  0.31825261    -0.47000
H214        H  0.06242751  0.10899121  0.31675464     0.06800
C215        C  0.00150400  0.10517968  0.41736390     0.42500
C216        C  0.09838980  0.46847225  0.31856686    -0.06500
Co217      Co  0.04875618  0.04655200  0.36013053     0.73800
N218        N  0.47307343  0.10404085  0.31981680    -0.46700
C219        C  0.99688614  0.39351949  0.41477292     0.42700
N220        N  0.09357673  0.02734203  0.40476721    -0.46700
Co221      Co  0.45503696  0.05022705  0.35945886     0.73900
C222        C  0.40639527  0.03343383  0.40298019    -0.07000
C223        C  0.46630923  0.40224051  0.31682107    -0.06600
N224        N  0.07192727  0.47974819  0.38566028    -0.26100
N225        N  0.39909711  0.47407971  0.31732038    -0.46900
H226        H  0.43650898  0.40243455  0.40625992     0.06800
C227        C  0.03357385  0.09197127  0.40504306    -0.07000
Cl228      Cl  0.49966592  0.00132732  0.35906160    -0.50000
C229        C  0.50213983  0.11998138  0.30948011     0.42500
H230        H  0.09223781  0.43740288  0.40828988     0.06700
N231        N  0.47287049  0.09431999  0.40452819    -0.46700
C232        C  0.00666081  0.28449148  0.51147474     0.02200
C233        C  0.00858281  0.28249040  0.48643723     0.02200
C234        C  0.00693958  0.24834332  0.47543248    -0.18400
C235        C  0.00485180  0.21621486  0.48859507     0.02200
C236        C  0.00330446  0.21809002  0.51345425     0.02200
C237        C  0.00485015  0.25204853  0.52457624    -0.18400
H238        H  0.00363265  0.25325986  0.54379988     0.04200
H239        H  0.00647116  0.24666911  0.45621715     0.04200
C240        C  0.28404082  0.49898914  0.48741322     0.02200
C241        C  0.28424829  0.50045923  0.51239431     0.02200
C242        C  0.25113240  0.49882791  0.52444984    -0.18400
C243        C  0.21787960  0.49727202  0.51227747     0.02200
C244        C  0.21770990  0.49594173  0.48728822     0.02200
C245        C  0.25083552  0.49701372  0.47521609    -0.18400
H246        H  0.25077680  0.49619772  0.45598624     0.04200
H247        H  0.25117762  0.49967395  0.54367616     0.04200
C248        C  0.00129549  0.25251357  0.24823530    -0.02600
C249        C  0.99558164  0.35504910  0.26833309    -0.20400
C250        C  0.50074574  0.35215943  0.29307917    -0.07000
C251        C  0.50705823  0.31797609  0.30337595     0.13900
C252        C  0.50842961  0.28699454  0.28884926    -0.20500
C253        C  0.00170036  0.28864182  0.26372133    -0.07000
C254        C  0.99726796  0.32442374  0.25353681     0.13900
C255        C  0.99449447  0.33208490  0.22723019    -0.23800
H256        H  0.99121196  0.38178429  0.26074467     0.15200
H257        H  0.51496601  0.26165652  0.29747111     0.15200
C258        C  0.51207943  0.31415122  0.32982722    -0.23800
H259        H  0.01972834  0.32441261  0.21812901     0.05400
H260        H  0.49433335  0.36192343  0.22374926     0.08600
H261        H  0.97047055  0.31866876  0.21931811     0.08600
H262        H  0.48771387  0.32434968  0.33907829     0.08600
H263        H  0.03801092  0.33100162  0.33470576     0.08600
H264        H  0.51604854  0.28539266  0.33519479     0.05400
C265        C  0.02993607  0.15845825  0.27832097    -0.20400
C266        C  0.50144444  0.15295330  0.29399691    -0.07000
C267        C  0.47396129  0.17928833  0.29473129     0.13900
C268        C  0.47656966  0.21031380  0.28018088    -0.20500
C269        C  0.00537277  0.21707415  0.26428246    -0.07000
C270        C  0.03260641  0.18890835  0.26318502     0.13900
C271        C  0.06486532  0.18748571  0.24672233    -0.23800
H272        H  0.05068253  0.13779833  0.27771628     0.15200
H273        H  0.45527338  0.23022713  0.28142483     0.15200
C274        C  0.44205924  0.17565934  0.31121401    -0.23800
H275        H  0.07613543  0.15967618  0.24546298     0.05400
H276        H  0.08746218  0.20416231  0.25399593     0.08600
H277        H  0.05797112  0.19424522  0.22822302     0.08600
H278        H  0.45180992  0.17341792  0.32983654     0.08600
H279        H  0.42558811  0.15126819  0.30643173     0.08600
H280        H  0.42392994  0.19952517  0.31012287     0.05400
C281        C  0.03450753  0.14088258  0.44829553    -0.20400
C282        C  0.00097872  0.12910603  0.43872376    -0.07000
C283        C  0.46889463  0.14138927  0.44956922     0.13900
C284        C  0.47092381  0.16764305  0.46766703    -0.20500
C285        C  0.00430906  0.18172522  0.47525366    -0.07000
C286        C  0.03658287  0.16735193  0.46605422     0.13900
C287        C  0.07375418  0.18066781  0.47365396    -0.23800
H288        H  0.05966818  0.13091822  0.44125161     0.15200
H289        H  0.44618675  0.17871878  0.47487129     0.15200
C290        C  0.43192328  0.12774673  0.44188628    -0.23800
H291        H  0.08828754  0.19210846  0.45808773     0.05400
H292        H  0.08948958  0.15755237  0.48089622     0.08600
H293        H  0.07286613  0.20205444  0.48745838     0.08600
H294        H  0.43057508  0.09770326  0.44363005     0.08600
H295        H  0.42639026  0.13590545  0.42326277     0.08600
H296        H  0.40999261  0.13913760  0.45297366     0.05400
C297        C  0.03162236  0.34668473  0.43613327    -0.20400
C298        C  0.00014300  0.36782291  0.43500765    -0.07000
C299        C  0.47437154  0.36452923  0.45356976     0.13900
C300        C  0.47904427  0.33794365  0.47116521    -0.20500
C301        C  0.00879425  0.31468099  0.47073149    -0.07000
C302        C  0.03618928  0.31997322  0.45355410     0.13900
C303        C  0.07041910  0.29770792  0.45348398    -0.23800
H304        H  0.05236704  0.35008027  0.42273563     0.15200
H305        H  0.45811629  0.33368444  0.48434809     0.15200
C306        C  0.44111146  0.38765797  0.45466951    -0.23800
H307        H  0.09004465  0.30779938  0.44004758     0.05400
H308        H  0.06428995  0.26891653  0.44918744     0.08600
H309        H  0.08399116  0.29912831  0.47108076     0.08600
H310        H  0.42159616  0.37825257  0.44094095     0.08600
H311        H  0.44841285  0.41678832  0.45220157     0.08600
H312        H  0.42723267  0.38501087  0.47204232     0.05400
C313        C  0.15094904  0.46561876  0.44013862    -0.20400
C314        C  0.12973265  0.49680265  0.43735070    -0.07000
C315        C  0.13436217  0.52591803  0.45356299     0.13900
C316        C  0.16159835  0.52378507  0.47113866    -0.20500
C317        C  0.18418004  0.49341026  0.47278363    -0.07000
C318        C  0.17806918  0.46354869  0.45746433     0.13900
C319        C  0.20027696  0.42932655  0.45834042    -0.23800
H320        H  0.14758733  0.94292285  0.42808164     0.15200
H321        H  0.16655825  0.54669867  0.48285296     0.15200
C322        C  0.11095263  0.55920363  0.45247998    -0.23800
H323        H  0.18198467  0.90555251  0.46138058     0.05400
H324        H  0.22100754  0.42941258  0.47265464     0.08600
H325        H  0.21437802  0.92571503  0.44118375     0.08600
H326        H  0.08186589  0.55112003  0.45352352     0.08600
H327        H  0.11595894  0.07425848  0.43571838     0.08600
H328        H  0.11694735  0.57810364  0.46739199     0.05400
C329        C  0.32502601  0.46627065  0.46102818    -0.20400
C330        C  0.31719951  0.49859809  0.47288294    -0.07000
C331        C  0.33548845  0.03097429  0.46653732     0.13900
C332        C  0.36098506  0.03029253  0.44818915    -0.20500
C333        C  0.36752494  0.49833989  0.43526853    -0.07000
C334        C  0.34931960  0.46571460  0.44201585     0.13900
C335        C  0.35330758  0.43058784  0.42864331    -0.23800
H336        H  0.30999726  0.44176541  0.46568447     0.15200
H337        H  0.37478202  0.05532912  0.44345419     0.15200
C338        C  0.32680751  0.06660263  0.47819521    -0.23800
H339        H  0.33661079  0.40824527  0.43637814     0.05400
H340        H  0.38191661  0.42199093  0.42927407     0.08600
H341        H  0.34443780  0.43423621  0.40993581     0.08600
H342        H  0.33373605  0.06523134  0.49731540     0.08600
H343        H  0.29748008  0.07250650  0.47603092     0.08600
H344        H  0.34251562  0.08956137  0.47035371     0.05400
C345        C  0.13645658  0.47459334  0.55076463    -0.20400
C346        C  0.13345118  0.50714484  0.56369527    -0.07000
C347        C  0.15611737  0.03719161  0.55736214     0.13900
C348        C  0.18048349  0.03359812  0.53859130    -0.20500
C349        C  0.18477030  0.50058913  0.52675493    -0.07000
C350        C  0.16239748  0.47062163  0.53281935     0.13900
C351        C  0.16649766  0.43365907  0.52180623    -0.23800
H352        H  0.11954178  0.45132699  0.55541727     0.15200
H353        H  0.19838649  0.05620163  0.53406003     0.15200
C354        C  0.15749830  0.07240015  0.57094211    -0.23800
H355        H  0.17228187  0.41335232  0.53589212     0.05400
H356        H  0.18892981  0.43270403  0.50892791     0.08600
H357        H  0.14090460  0.92578401  0.51252767     0.08600
H358        H  0.16146581  0.56701776  0.59018054     0.08600
H359        H  0.13250643  0.08787450  0.56750588     0.08600
H360        H  0.18040343  0.09021887  0.56523751     0.05400
C361        C  0.34893045  0.02862332  0.56136752    -0.20400
C362        C  0.37087505  0.49780349  0.56323745    -0.07000
C363        C  0.36810859  0.47066692  0.54534605     0.13900
C364        C  0.34149004  0.47383541  0.52747910    -0.20500
C365        C  0.31776724  0.50327800  0.52696739    -0.07000
C366        C  0.32256889  0.03175733  0.54356023     0.13900
C367        C  0.29979192  0.06557578  0.54332300    -0.23800
H368        H  0.35139137  0.05013908  0.57442681     0.15200
H369        H  0.33763904  0.45204572  0.51474880     0.15200
C370        C  0.39211706  0.43788888  0.54487409    -0.23800
H371        H  0.31783141  0.08992589  0.54231498     0.05400
H372        H  0.28372898  0.56690857  0.55988135     0.08600
H373        H  0.28090612  0.06677062  0.52795908     0.08600
H374        H  0.38307269  0.41835329  0.55862099     0.08600
H375        H  0.42096838  0.44601546  0.54759134     0.08600
H376        H  0.39019021  0.42345872  0.52759857     0.05400
C377        C  0.46760146  0.15118592  0.55870321    -0.20400
C378        C  0.99916838  0.13247035  0.56477109    -0.07000
C379        C  0.03112402  0.13892127  0.55138284     0.13900
C380        C  0.03097664  0.16547729  0.53351600    -0.20500
C381        C  0.99987761  0.18560432  0.52864621    -0.07000
C382        C  0.46760736  0.17786833  0.54094944     0.13900
C383        C  0.43319836  0.19821234  0.53562416    -0.23800
H384        H  0.44286041  0.14613031  0.56844837     0.15200
H385        H  0.05576518  0.17183346  0.52411546     0.15200
C386        C  0.06570934  0.11852730  0.55576954    -0.23800
H387        H  0.41012140  0.18808542  0.54646748     0.05400
H388        H  0.42580185  0.19481316  0.51663005     0.08600
H389        H  0.43706721  0.22756406  0.53951433     0.08600
H390        H  0.06041287  0.08880907  0.55454565     0.08600
H391        H  0.07688472  0.12562392  0.57350832     0.08600
H392        H  0.08687134  0.12558742  0.54252392     0.05400
C393        C  0.47195997  0.32288181  0.53879820    -0.20400
C394        C  0.00333432  0.31883678  0.52514771    -0.07000
C395        C  0.03292975  0.34289017  0.52904927     0.13900
C396        C  0.03093177  0.36878796  0.54728207    -0.20500
C397        C  0.00065200  0.37051563  0.56228594    -0.07000
C398        C  0.47021938  0.34777243  0.55754786     0.13900
C399        C  0.43677977  0.34719071  0.57283426    -0.23800
H400        H  0.44939737  0.30426290  0.53570062     0.15200
H401        H  0.05384210  0.38691041  0.55032976     0.15200
C402        C  0.06741507  0.34028735  0.51504444    -0.23800
H403        H  0.41640022  0.32676762  0.56664233     0.05400
H404        H  0.42363991  0.37407787  0.57234007     0.08600
H405        H  0.44425469  0.34011005  0.59137774     0.08600
H406        H  0.06206393  0.34781143  0.49635914     0.08600
H407        H  0.07817352  0.31226639  0.51607018     0.08600
H408        H  0.08876343  0.35923007  0.52183090     0.05400
C409        C  0.06799428  0.26695330  0.24273803    -0.20400
C410        C  0.03445073  0.25836240  0.23123691    -0.07000
C411        C  0.03537466  0.25683282  0.20566284     0.13900
C412        C  0.06914158  0.25421544  0.19431521    -0.20500
C413        C  0.10178604  0.25857888  0.20671307    -0.07000
C414        C  0.10124349  0.26723181  0.23084592     0.13900
C415        C  0.13598125  0.27442293  0.24439448    -0.23800
H416        H  0.06879509  0.27051217  0.26180475     0.15200
H417        H  0.07006651  0.25044763  0.17521538     0.15200
C418        C  0.00376675  0.26124477  0.18870251    -0.23800
H419        H  0.13084398  0.28036162  0.26338781     0.05400
H420        H  0.15046711  0.29817189  0.23657107     0.08600
H421        H  0.15363987  0.25021985  0.24344759     0.08600
H422        H  0.97889509  0.27146728  0.19664184     0.08600
H423        H  0.99812411  0.23539205  0.17917219     0.08600
H424        H  0.01090730  0.28216870  0.17521235     0.05400
C425        C  0.43488318  0.27151419  0.24170486    -0.20400
C426        C  0.46375583  0.24791172  0.23573949    -0.07000
C427        C  0.45415230  0.21861266  0.22002093     0.13900
C428        C  0.42158270  0.22028298  0.20675276    -0.20500
C429        C  0.39668008  0.24836802  0.20989023    -0.07000
C430        C  0.40227559  0.27269843  0.22880522     0.13900
C431        C  0.37344509  0.29905496  0.23631044    -0.23800
H432        H  0.43730076  0.28995136  0.25649628     0.15200
H433        H  0.41574843  0.19965242  0.19350557     0.15200
C434        C  0.47713082  0.18535942  0.21666760    -0.23800
H435        H  0.38069121  0.31290051  0.25322150     0.05400
H436        H  0.34729690  0.28434788  0.23903009     0.08600
H437        H  0.37000898  0.32059471  0.22280839     0.08600
H438        H  0.47835558  0.16947360  0.23334033     0.08600
H439        H  0.50457206  0.19271391  0.21065281     0.08600
H440        H  0.46546987  0.16676621  0.20302823     0.05400
C441        C  0.21102657  0.07364213  0.04122728    -0.20400
C442        C  0.24307610  0.06612078  0.02902545    -0.07000
C443        C  0.27567244  0.08375975  0.03580576     0.13900
C444        C  0.27519099  0.10920038  0.05422842    -0.20500
C445        C  0.24336093  0.11618786  0.06699125    -0.07000
C446        C  0.21068753  0.09799493  0.06032063     0.13900
C447        C  0.17584678  0.10200915  0.07390604    -0.23800
H448        H  0.18650776  0.05847305  0.03667797     0.15200
H449        H  0.30035322  0.12280255  0.05905538     0.15200
C450        C  0.31140646  0.07448246  0.02463396    -0.23800
H451        H  0.15348429  0.08507474  0.06630874     0.05400
H452        H  0.16694364  0.13059766  0.07338699     0.08600
H453        H  0.17995734  0.09333941  0.09259946     0.08600
H454        H  0.31125062  0.08285357  0.00581948     0.08600
H455        H  0.31627492  0.04483069  0.02599874     0.08600
H456        H  0.33452256  0.08885671  0.03341308     0.05400
C457        C  0.28096411  0.39870234  0.05750287    -0.20400
C458        C  0.25063902  0.37582294  0.06054943    -0.07000
C459        C  0.22092593  0.37867597  0.04451536     0.13900
C460        C  0.21980935  0.40814189  0.02872983    -0.20500
C461        C  0.24875680  0.43303724  0.02734832    -0.07000
C462        C  0.28057356  0.42701301  0.04086958     0.13900
C463        C  0.31401494  0.45061570  0.03797047    -0.23800
H464        H  0.30446583  0.39566731  0.06900670     0.15200
H465        H  0.19598346  0.41194064  0.01769307     0.15200
C466        C  0.19060443  0.35085836  0.04292035    -0.23800
H467        H  0.33695000  0.44080893  0.04905142     0.05400
H468        H  0.30849068  0.47896600  0.04334177     0.08600
H469        H  0.32271853  0.45027429  0.01915126     0.08600
H470        H  0.16496279  0.36272977  0.04943918     0.08600
H471        H  0.19663081  0.32560601  0.05284105     0.08600
H472        H  0.18666535  0.34258663  0.02412231     0.05400
C473        C  0.28073626  0.07200780  0.96357394    -0.20400
C474        C  0.24706037  0.06708745  0.97453288    -0.07000
C475        C  0.21754720  0.08846863  0.96726959     0.13900
C476        C  0.22248834  0.11412171  0.94901446    -0.20500
C477        C  0.25614447  0.11864462  0.93750899    -0.07000
C478        C  0.28602631  0.09770202  0.94549953     0.13900
C479        C  0.32331378  0.10047403  0.93482236    -0.23800
H480        H  0.30281236  0.05427003  0.96859914     0.15200
H481        H  0.19944815  0.12996934  0.94319687     0.15200
C482        C  0.18044714  0.08287957  0.97781351    -0.23800
H483        H  0.34211104  0.08006611  0.94242554     0.05400
H484        H  0.33540102  0.12753384  0.93884807     0.08600
H485        H  0.32185129  0.09550224  0.91542279     0.08600
H486        H  0.18139411  0.08907135  0.99702401     0.08600
H487        H  0.17128406  0.05428996  0.97520920     0.08600
H488        H  0.16003241  0.10093390  0.96946629     0.05400
C489        C  0.27176226  0.41616552  0.96981062    -0.20400
C490        C  0.23936517  0.43431615  0.97416359    -0.07000
C491        C  0.20747043  0.42418792  0.96180457     0.13900
C492        C  0.20910872  0.39705481  0.94451060    -0.20500
C493        C  0.24206617  0.38036966  0.93878957    -0.07000
C494        C  0.27365655  0.38939150  0.95217663     0.13900
C495        C  0.30952380  0.37144886  0.94801114    -0.23800
H496        H  0.29610658  0.42437416  0.97942194     0.15200
H497        H  0.18461994  0.39026139  0.93471335     0.15200
C498        C  0.17186653  0.44271886  0.96636092    -0.23800
H499        H  0.33041839  0.38039984  0.96112416     0.05400
H500        H  0.31982995  0.37867752  0.93014378     0.08600
H501        H  0.30627566  0.34150200  0.94965517     0.08600
H502        H  0.17405238  0.47203979  0.96189307     0.08600
H503        H  0.16443508  0.43978513  0.98531044     0.08600
H504        H  0.14946069  0.43082573  0.95549080     0.05400
C505        C  0.50107366  0.21314805  0.71035780    -0.20400
C506        C  0.50206035  0.21229289  0.73552849    -0.07000
C507        C  0.00735671  0.17717281  0.74630718     0.13900
C508        C  0.00645792  0.14560617  0.73226742    -0.20500
C509        C  0.50227576  0.14741867  0.70779756    -0.07000
C510        C  0.50073601  0.18145420  0.69656637     0.13900
C511        C  0.49894348  0.18437892  0.66989141    -0.23800
H512        H  0.50095216  0.23853154  0.70089186     0.15200
H513        H  0.00914452  0.11910029  0.74048893     0.15200
C514        C  0.01284231  0.17127070  0.77268501    -0.23800
H515        H  0.49809997  0.21311064  0.66383855     0.05400
H516        H  0.47415057  0.17029459  0.66314709     0.08600
H517        H  0.52324525  0.17166029  0.66202527     0.08600
H518        H  0.99250641  0.18605317  0.78320116     0.08600
H519        H  0.04073700  0.17955583  0.77796764     0.08600
H520        H  0.01005054  0.14214740  0.77766064     0.05400
C521        C  0.02452606  0.31293656  0.74018746    -0.20400
C522        C  0.49838167  0.28487305  0.73517611    -0.07000
C523        C  0.47146709  0.29404283  0.71764824     0.13900
C524        C  0.47481006  0.32638390  0.70440976    -0.20500
C525        C  0.50296947  0.35157370  0.70833375    -0.07000
C526        C  0.02768564  0.34515932  0.72691899     0.13900
C527        C  0.05605737  0.37303235  0.73411827    -0.23800
H528        H  0.04280403  0.31075176  0.75509460     0.15200
H529        H  0.45498450  0.33184790  0.69058915     0.15200
C530        C  0.43837397  0.27137073  0.71176442    -0.23800
H531        H  0.06974694  0.36567948  0.75104504     0.05400
H532        H  0.04329254  0.39993607  0.73663344     0.08600
H533        H  0.07747561  0.37497174  0.72049371     0.08600
H534        H  0.43694011  0.24603948  0.72167090     0.08600
H535        H  0.43833580  0.26427595  0.69261131     0.08600
H536        H  0.41353348  0.28701379  0.71569898     0.05400
C537        C  0.09964385  0.24210783  0.77195729    -0.20400
C538        C  0.09644660  0.24413650  0.79644864    -0.07000
C539        C  0.06194318  0.24825527  0.80657026     0.13900
C540        C  0.03103176  0.24944781  0.79179762    -0.20500
C541        C  0.03339592  0.24818099  0.76663866    -0.07000
C542        C  0.06940255  0.24527299  0.75689133     0.13900
C543        C  0.07847372  0.24629362  0.73078635    -0.23800
H544        H  0.12647109  0.23943658  0.76439241     0.15200
H545        H  0.00512042  0.25004962  0.80049534     0.15200
C546        C  0.05765337  0.25069146  0.83309810    -0.23800
H547        H  0.08855735  0.21933561  0.72516952     0.05400
H548        H  0.10013716  0.26699652  0.72766118     0.08600
H549        H  0.05596459  0.25412371  0.71912089     0.08600
H550        H  0.07280087  0.27478758  0.83993900     0.08600
H551        H  0.06844432  0.22578851  0.84162665     0.08600
H552        H  0.02877167  0.25343152  0.83826771     0.05400
C553        C  0.45566269  0.28141235  0.77824456    -0.20400
C554        C  0.46154977  0.24907383  0.76509977    -0.07000
C555        C  0.43193799  0.22263800  0.76535558     0.13900
C556        C  0.40156807  0.22874063  0.77980859    -0.20500
C557        C  0.39712616  0.26031091  0.79309990    -0.07000
C558        C  0.42443706  0.28749048  0.79188492     0.13900
C559        C  0.42188391  0.32277754  0.80522170    -0.23800
H560        H  0.47648182  0.30243278  0.77816655     0.15200
H561        H  0.38030334  0.20812403  0.78070476     0.15200
C562        C  0.42884170  0.18757673  0.75120004    -0.23800
H563        H  0.44695248  0.33962521  0.80347569     0.05400
H564        H  0.41780405  0.31740392  0.82441293     0.08600
H565        H  0.39930925  0.33902255  0.79783810     0.08600
H566        H  0.44266777  0.16519650  0.76057109     0.08600
H567        H  0.43748332  0.19005197  0.73259314     0.08600
H568        H  0.40014663  0.17821959  0.74952534     0.05400
C569        C  0.31468182  0.47166337  0.73973639    -0.20400
C570        C  0.28945381  0.00014429  0.73641254    -0.07000
C571        C  0.30113922  0.02980712  0.72158821     0.13900
C572        C  0.33321541  0.02676629  0.70831299    -0.20500
C573        C  0.35559047  0.99626073  0.70985970    -0.07000
C574        C  0.34682415  0.46903543  0.72661997     0.13900
C575        C  0.37134251  0.43733369  0.73154489    -0.23800
H576        H  0.30983852  0.45080980  0.75277432     0.15200
H577        H  0.34079567  0.04864646  0.69636058     0.15200
C578        C  0.28074163  0.06507223  0.71910876    -0.23800
H579        H  0.36339762  0.42250794  0.74793047     0.05400
H580        H  0.39980533  0.44691204  0.73401506     0.08600
H581        H  0.36931083  0.41745583  0.71686269     0.08600
H582        H  0.28359772  0.08116722  0.73561514     0.08600
H583        H  0.25177200  0.06034925  0.71481811     0.08600
H584        H  0.29188812  0.08245617  0.70469570     0.05400
C585        C  0.18357630  0.99776733  0.74439856    -0.20400
C586        C  0.21773155  0.99878053  0.73265487    -0.07000
C587        C  0.21634534  0.99807985  0.70697821     0.13900
C588        C  0.18267701  0.00180430  0.69529630    -0.20500
C589        C  0.14998474  0.00234326  0.70755849    -0.07000
C590        C  0.15027682  0.99979810  0.73232426     0.13900
C591        C  0.11532913  0.99957636  0.74605308    -0.23800
H592        H  0.18298708  0.99686690  0.76360417     0.15200
H593        H  0.18165997  0.00233899  0.67603817     0.15200
C594        C  0.24709591  0.99009381  0.69013717    -0.23800
H595        H  0.12022400  0.99760135  0.76548191     0.05400
H596        H  0.09823097  0.47596173  0.74055663     0.08600
H597        H  0.10036476  0.02505208  0.74247344     0.08600
H598        H  0.27085092  0.47708943  0.69799434     0.08600
H599        H  0.25531788  0.01524625  0.68057512     0.08600
H600        H  0.23772137  0.96997039  0.67667347     0.05400
C601        C  0.22626689  0.06265520  0.76258952    -0.20400
C602        C  0.25292935  0.03521242  0.76559359    -0.07000
C603        C  0.28143907  0.04334209  0.78249641     0.13900
C604        C  0.28067975  0.07576188  0.79585382    -0.20500
C605        C  0.25324212  0.10140434  0.79306977    -0.07000
C606        C  0.22571736  0.09468244  0.77615895     0.13900
C607        C  0.19624683  0.12202222  0.77152515    -0.23800
H608        H  0.20621580  0.06080114  0.74868262     0.15200
H609        H  0.30212635  0.08131543  0.80864122     0.15200
C610        C  0.31432999  0.01972621  0.78631080    -0.23800
H611        H  0.17797329  0.11356449  0.75673328     0.05400
H612        H  0.20857958  0.14872218  0.76677309     0.08600
H613        H  0.17919628  0.12503332  0.78753959     0.08600
H614        H  0.33293772  0.02252756  0.77105717     0.08600
H615        H  0.30691253  0.99089691  0.78919123     0.08600
H616        H  0.33031690  0.02825439  0.80216589     0.05400
C617        C  0.24209146  0.39699053  0.77071682    -0.20400
C618        C  0.24015526  0.40062505  0.79520841    -0.07000
C619        C  0.23876810  0.43557836  0.80511896     0.13900
C620        C  0.24104494  0.46630739  0.79025965    -0.20500
C621        C  0.24666798  0.46367524  0.76537320    -0.07000
C622        C  0.24423694  0.42741682  0.75556284     0.13900
C623        C  0.24318200  0.41901238  0.72932871    -0.23800
H624        H  0.24178907  0.36974824  0.76337412     0.15200
H625        H  0.23852446  0.49243588  0.79866072     0.15200
C626        C  0.23508901  0.44046765  0.83153232    -0.23800
H627        H  0.24174934  0.38931228  0.72585056     0.05400
H628        H  0.26794265  0.42863468  0.72039649     0.08600
H629        H  0.21845661  0.43017455  0.72102900     0.08600
H630        H  0.25845834  0.42782752  0.84079766     0.08600
H631        H  0.20952792  0.42732084  0.83766517     0.08600
H632        H  0.23446215  0.46962173  0.83658139     0.05400
C633        C  0.09185565  0.22287112  0.02867855    -0.20400
C634        C  0.06698178  0.25128031  0.02743879    -0.07000
C635        C  0.07262066  0.28234442  0.04184019     0.13900
C636        C  0.09984361  0.28193036  0.05932964    -0.20500
C637        C  0.12268178  0.25192225  0.06210648    -0.07000
C638        C  0.12059826  0.22353549  0.04510782     0.13900
C639        C  0.14838272  0.19407789  0.04305918    -0.23800
H640        H  0.08846097  0.19957706  0.01707808     0.15200
H641        H  0.10235388  0.30480359  0.07136842     0.15200
C642        C  0.05018197  0.31613973  0.03935423    -0.23800
H643        H  0.15838568  0.19308899  0.02452033     0.05400
H644        H  0.13552071  0.16748321  0.04734104     0.08600
H645        H  0.17257887  0.19876865  0.05442232     0.08600
H646        H  0.03408724  0.32021801  0.05570326     0.08600
H647        H  0.03154630  0.31502689  0.02385461     0.08600
H648        H  0.06843147  0.34004384  0.03674375     0.05400
C649        C  0.39597364  0.27949104  0.05534594    -0.20400
C650        C  0.38011525  0.24674769  0.06340868    -0.07000
C651        C  0.38962117  0.21383740  0.05200757     0.13900
C652        C  0.41634854  0.21451460  0.03430021    -0.20500
C653        C  0.43358021  0.24703734  0.02754536    -0.07000
C654        C  0.42262334  0.28002158  0.03775284     0.13900
C655        C  0.43973588  0.31577769  0.03060397    -0.23800
H656        H  0.38872318  0.30505874  0.06339117     0.15200
H657        H  0.42527605  0.18921254  0.02660635     0.15200
C658        C  0.37237946  0.17781131  0.05841145    -0.23800
H659        H  0.42760013  0.33902119  0.04014297     0.05400
H660        H  0.43571551  0.32028195  0.01132469     0.08600
H661        H  0.46916357  0.31575497  0.03474525     0.08600
H662        H  0.34245542  0.17940948  0.05629804     0.08600
H663        H  0.37945844  0.17040685  0.07694631     0.08600
H664        H  0.38192629  0.15554090  0.04680600     0.05400
C665        C  0.10313601  0.20696727  0.94511362    -0.20400
C666        C  0.12024275  0.24003985  0.93904165    -0.07000
C667        C  0.11242266  0.27158542  0.95249597     0.13900
C668        C  0.08561365  0.26970201  0.97006908    -0.20500
C669        C  0.06671421  0.23724618  0.97463207    -0.07000
C670        C  0.07662092  0.20516133  0.96275448     0.13900
C671        C  0.05934620  0.16869578  0.96805424    -0.23800
H672        H  0.10935947  0.18235863  0.93555413     0.15200
H673        H  0.07799447  0.29411104  0.97947391     0.15200
C674        C  0.13167517  0.30744549  0.94850466    -0.23800
H675        H  0.08075275  0.14917970  0.97327578     0.05400
H676        H  0.04512018  0.15831696  0.95196844     0.08600
H677        H  0.03955964  0.16976374  0.98277044     0.08600
H678        H  0.12445200  0.31848836  0.93079434     0.08600
H679        H  0.16149040  0.30380201  0.94994015     0.08600
H680        H  0.12384930  0.32806252  0.96185238     0.05400
C681        C  0.42784608  0.27925252  0.96475759    -0.20400
C682        C  0.43420600  0.24448760  0.97380455    -0.07000
C683        C  0.41382183  0.21471156  0.96505942     0.13900
C684        C  0.38768939  0.22054492  0.94726647    -0.20500
C685        C  0.38216937  0.25523638  0.93726635    -0.07000
C686        C  0.40248856  0.28517788  0.94653209     0.13900
C687        C  0.39963222  0.32323898  0.93698266    -0.23800
H688        H  0.44456373  0.30168822  0.97109160     0.15200
H689        H  0.37248064  0.19732993  0.94056545     0.15200
C690        C  0.41994094  0.17632276  0.97337019    -0.23800
H691        H  0.41956954  0.34212035  0.94545092     0.05400
H692        H  0.37248124  0.33392974  0.94096644     0.08600
H693        H  0.40505070  0.32358053  0.91763450     0.08600
H694        H  0.39454468  0.16526063  0.98123212     0.08600
H695        H  0.44186995  0.17438177  0.98684557     0.08600
H696        H  0.42755863  0.15916333  0.95803995     0.05400
C697        C  0.31743098  0.00528004  0.25529670    -0.20400
C698        C  0.28345209  0.99835849  0.26642077    -0.07000
C699        C  0.28506419  0.98894717  0.29129182     0.13900
C700        C  0.31832584  0.99242858  0.30372989    -0.20500
C701        C  0.35067353  0.00192131  0.29237059    -0.07000
C702        C  0.35035250  0.00785665  0.26784661     0.13900
C703        C  0.38494484  0.01666741  0.25480806    -0.23800
H704        H  0.31820516  0.00999458  0.23646665     0.15200
H705        H  0.31935421  0.98629894  0.32253877     0.15200
C706        C  0.25490399  0.47180810  0.30576711    -0.23800
H707        H  0.38011426  0.02040209  0.23548673     0.05400
H708        H  0.40450086  0.49422106  0.25718699     0.08600
H709        H  0.39713521  0.04219626  0.26191381     0.08600
H710        H  0.23334539  0.45833709  0.29538769     0.08600
H711        H  0.24322000  0.99234849  0.31785771     0.08600
H712        H  0.26600328  0.44948555  0.31686444     0.05400
C713        C  0.20689312  0.02633991  0.27998504    -0.20400
C714        C  0.21198185  0.99761340  0.26357171    -0.07000
C715        C  0.18256058  0.47134621  0.26162611     0.13900
C716        C  0.15337651  0.47294681  0.27756799    -0.20500
C717        C  0.14920737  0.00149344  0.29355934    -0.07000
C718        C  0.17615335  0.02900465  0.29446933     0.13900
C719        C  0.17367272  0.06074911  0.31123536    -0.23800
H720        H  0.22793628  0.04690189  0.28192693     0.15200
H721        H  0.13210834  0.45236776  0.27648705     0.15200
C722        C  0.17693359  0.44263768  0.24267999    -0.23800
H723        H  0.19795377  0.07886959  0.31023657     0.05400
H724        H  0.17153690  0.55074756  0.32980415     0.08600
H725        H  0.14967968  0.07736648  0.30663067     0.08600
H726        H  0.18104918  0.41521602  0.25043718     0.08600
H727        H  0.19326390  0.94591640  0.22667414     0.08600
H728        H  0.14858468  0.44375547  0.23586197     0.05400
C729        C  0.26841276  0.06711598  0.24335242    -0.20400
C730        C  0.24618465  0.03717616  0.23604287    -0.07000
C731        C  0.21977492  0.04498729  0.21788337     0.13900
C732        C  0.22130148  0.07837638  0.20559289    -0.20500
C733        C  0.24674132  0.10550871  0.21128603    -0.07000
C734        C  0.26948074  0.10042936  0.23112504     0.13900
C735        C  0.29376067  0.13066280  0.24030763    -0.23800
H736        H  0.28488063  0.06535322  0.25919119     0.15200
H737        H  0.20258479  0.08323078  0.19104841     0.15200
C738        C  0.18933097  0.01939015  0.21085120    -0.23800
H739        H  0.30754627  0.12306691  0.25715301     0.05400
H740        H  0.27739740  0.15523568  0.24373906     0.08600
H741        H  0.31525973  0.13722576  0.22730412     0.08600
H742        H  0.17078937  0.01496129  0.22592159     0.08600
H743        H  0.19991225  0.99365458  0.20397417     0.08600
H744        H  0.17225698  0.03070114  0.19636883     0.05400
C745        C  0.26295103  0.43260625  0.19564249    -0.20400
C746        C  0.25767345  0.39932701  0.20712279    -0.07000
C747        C  0.25569522  0.39841550  0.23192289     0.13900
C748        C  0.25582972  0.43123256  0.24455471    -0.20500
C749        C  0.25581697  0.46571125  0.23311927    -0.07000
C750        C  0.26435811  0.46566903  0.20820697     0.13900
C751        C  0.27754905  0.49777975  0.19369130    -0.23800
H752        H  0.26697941  0.43267556  0.17656959     0.15200
H753        H  0.25306967  0.42973355  0.26353953     0.15200
C754        C  0.25229107  0.36282055  0.24502898    -0.23800
H755        H  0.30202409  0.48980555  0.18361394     0.05400
H756        H  0.28657338  0.52159457  0.20392770     0.08600
H757        H  0.25636642  0.50578190  0.18065841     0.08600
H758        H  0.27615177  0.34568011  0.24118697     0.08600
H759        H  0.22716946  0.34828549  0.23924984     0.08600
H760        H  0.25091042  0.36685104  0.26452867     0.05400
C761        C  0.24880388  0.99935850  0.24949110    -0.02600
C762        C  0.46707311  0.74005670  0.98860756     0.02200
C763        C  0.46716733  0.74506248  0.01338155     0.02200
C764        C  0.99989814  0.74700049  0.02531367    -0.18400
C765        C  0.03315432  0.74601706  0.01334532     0.02200
C766        C  0.03314434  0.73883754  0.98876704     0.02200
C767        C  0.00002957  0.73573848  0.97651836    -0.18400
H768        H  0.00008720  0.73232198  0.95741917     0.04200
H769        H  0.99975776  0.75082387  0.04437886     0.04200
C770        C  0.25208723  0.49938988  0.74967812    -0.02600
C771        C  0.99833807  0.74822161  0.75030687    -0.02600
C772        C  0.24062074  0.96753201  0.98868612     0.02200
C773        C  0.24422716  0.96695390  0.01354758     0.02200
C774        C  0.24376180  0.99982312  0.02597744    -0.18400
C775        C  0.24315725  0.53328002  0.01407631     0.02200
C776        C  0.24224703  0.53385102  0.98904102     0.02200
C777        C  0.24020753  0.00088574  0.97672575    -0.18400
H778        H  0.23934784  0.00116149  0.95749919     0.04200
H779        H  0.24486041  0.99940368  0.04520729     0.04200
C780        C  0.35719552  0.75752561  0.91631224     0.42400
N781        N  0.32555622  0.74006295  0.88596206     0.01300
C782        C  0.20884676  0.84849779  0.82025989    -0.06600
H783        H  0.18231117  0.84049725  0.91055357     0.06700
C784        C  0.15976211  0.70947553  0.90564597    -0.07000
Co785      Co  0.29100175  0.80241738  0.86100991     0.74200
N786        N  0.22432423  0.82172532  0.88752685    -0.26200
Co787      Co  0.19733391  0.79225176  0.86151796     0.74100
C788        C  0.14488817  0.74062412  0.91825468     0.42500
N789        N  0.23870434  0.67323165  0.88582263     0.00900
N790        N  0.17353606  0.75941672  0.88740468     0.01000
N791        N  0.27007829  0.85412671  0.82072718    -0.47000
H792        H  0.34159548  0.81756110  0.90921422     0.06700
N793        N  0.25986263  0.82587272  0.88753238     0.01300
N794        N  0.17045422  0.76125502  0.83585390     0.01000
C795        C  0.12995780  0.74363763  0.81087791     0.42600
N796        N  0.27421983  0.67756555  0.88560887    -0.25600
C797        C  0.34559130  0.79220587  0.81945629    -0.06500
N798        N  0.34648238  0.72820389  0.90345109    -0.46700
N799        N  0.14429949  0.77313395  0.82171629    -0.46900
C800        C  0.36475590  0.76136382  0.80900227     0.42400
N801        N  0.25880046  0.82869489  0.83574027     0.01200
N802        N  0.27271099  0.67706333  0.83399464    -0.25600
N803        N  0.32177192  0.77558306  0.88639689    -0.26100
N804        N  0.23693153  0.67374266  0.83398736     0.00900
H805        H  0.31445646  0.64848805  0.81519389     0.06800
H806        H  0.14326687  0.68333651  0.81699928     0.06800
N807        N  0.22304053  0.82506590  0.83601356    -0.26200
N808        N  0.17709501  0.72383492  0.88695985    -0.25800
N809        N  0.32530239  0.74157990  0.83426008     0.01300
C810        C  0.24232323  0.85486896  0.91838304     0.42600
C811        C  0.28847670  0.65972876  0.90409924    -0.07000
N812        N  0.17351740  0.72546890  0.83544867    -0.25800
H813        H  0.15810721  0.68083384  0.90984009     0.06800
N814        N  0.27176555  0.84578752  0.90559419    -0.47000
H815        H  0.31705142  0.65964438  0.90825634     0.06800
C816        C  0.25413499  0.63500544  0.80786337     0.42500
C817        C  0.34054251  0.78912734  0.90484964    -0.06500
Co818      Co  0.29997461  0.70865112  0.85975545     0.73800
N819        N  0.22755044  0.65281164  0.90379495    -0.46700
C820        C  0.24016602  0.86739829  0.81002272     0.42700
N821        N  0.35044204  0.73108229  0.81915139    -0.46700
Co822      Co  0.20616054  0.69849883  0.86035578     0.73900
C823        C  0.14904840  0.71189256  0.81994881    -0.07000
C824        C  0.21078590  0.83912687  0.90621699    -0.06600
N825        N  0.32219845  0.77728730  0.83497105    -0.26100
N826        N  0.15426953  0.77052985  0.90569373    -0.46900
H827        H  0.18021046  0.85343911  0.81754456     0.06800
C828        C  0.28603371  0.65364662  0.81804578    -0.07000
Cl829      Cl  0.24862128  0.75044211  0.86033507    -0.50000
C830        C  0.25740314  0.64300580  0.91627774     0.42500
H831        H  0.34973788  0.82103366  0.81719392     0.06700
N832        N  0.22488502  0.64869014  0.81890901    -0.46700
C833        C  0.25482810  0.86587588  0.19284224     0.42400
N834        N  0.26853366  0.82784849  0.16565543     0.01300
C835        C  0.15662641  0.71806232  0.09718607    -0.06600
H836        H  0.14251250  0.69412780  0.18718216     0.06700
C837        C  0.28101004  0.65401391  0.18501645    -0.07000
Co838      Co  0.20278981  0.79744692  0.14088091     0.74200
N839        N  0.17460859  0.73326927  0.16760217    -0.26200
Co840      Co  0.20291862  0.70326271  0.14253688     0.74100
C841        C  0.24855424  0.63873945  0.19626564     0.42500
N842        N  0.32612885  0.73491204  0.16686864     0.00900
N843        N  0.23271297  0.67626096  0.16882249     0.01000
N844        N  0.15752476  0.77943738  0.09628497    -0.47000
H845        H  0.19357635  0.85730500  0.18631174     0.06700
N846        N  0.17497883  0.76916559  0.16715618     0.01300
N847        N  0.23170571  0.67487201  0.11705968     0.01000
C848        C  0.24599413  0.64112173  0.08763301     0.42600
N849        N  0.32623820  0.77078474  0.16612094    -0.25600
C850        C  0.21768107  0.84205419  0.09563162    -0.06500
N851        N  0.28283601  0.85126887  0.18102637    -0.46700
N852        N  0.21777893  0.65452952  0.09986759    -0.46900
C853        C  0.24955167  0.85245477  0.08193755     0.42400
N854        N  0.17499136  0.76682401  0.11516857     0.01200
N855        N  0.32349481  0.76912344  0.11454044    -0.25600
N856        N  0.23266996  0.82721819  0.16603566    -0.26100
N857        N  0.32407490  0.73334594  0.11493075     0.00900
H858        H  0.34628630  0.80942251  0.09131117     0.06800
H859        H  0.30724346  0.65026198  0.09492793     0.06800
N860        N  0.17510997  0.73100630  0.11596159    -0.26200
N861        N  0.26857002  0.67680487  0.16834484    -0.25800
N862        N  0.26653479  0.82461169  0.11358285     0.01300
C863        C  0.13606508  0.75541728  0.19381254     0.42600
C864        C  0.34998481  0.78329305  0.18237538    -0.07000
N865        N  0.26744985  0.67564765  0.11687638    -0.25800
H866        H  0.30915693  0.64676401  0.18737001     0.06800
N867        N  0.15174592  0.78346635  0.18221211    -0.47000
H868        H  0.35775432  0.81151244  0.18446743     0.06800
C869        C  0.35500807  0.74836407  0.08404695     0.42500
C870        C  0.22150278  0.85046150  0.18271288    -0.06500
Co871      Co  0.29677328  0.79874635  0.14006811     0.73800
N872        N  0.34914179  0.72183968  0.18280189    -0.46700
C873        C  0.14590551  0.75021444  0.08371350     0.42700
N874        N  0.27897305  0.84159467  0.09447228    -0.46700
Co875      Co  0.29712849  0.70465741  0.14183975     0.73900
C876        C  0.27907072  0.65507570  0.09901391    -0.07000
C877        C  0.15060082  0.72205629  0.18389183    -0.06600
N878        N  0.23083055  0.82427938  0.11443711    -0.26100
N879        N  0.21968154  0.65324135  0.18486640    -0.46900
H880        H  0.15176462  0.68960311  0.09339509     0.06800
C881        C  0.34224985  0.78112732  0.09583869    -0.07000
Cl882      Cl  0.24991464  0.75102380  0.14155373    -0.50000
C883        C  0.36474536  0.75071373  0.19374962     0.42500
H884        H  0.18926368  0.84666028  0.09205497     0.06700
N885        N  0.34285457  0.71978859  0.09707285    -0.46700
C886        C  0.50493275  0.88451203  0.69298903     0.42400
N887        N  0.48820925  0.92295483  0.66639248     0.01300
C888        C  0.09302774  0.53812656  0.59699692    -0.06600
H889        H  0.10486574  0.56352966  0.68686728     0.06700
C890        C  0.46786437  0.59684507  0.68371646    -0.07000
Co891      Co  0.05161537  0.95598718  0.64014169     0.74200
N892        N  0.07654513  0.52208934  0.66661867    -0.26200
Co893      Co  0.04593106  0.54986201  0.64128549     0.74100
C894        C  0.50046460  0.61334180  0.69420602     0.42500
N895        N  0.42573398  0.51245392  0.66723451     0.00900
N896        N  0.01604659  0.57564178  0.66733002     0.01000
N897        N  0.09747039  0.97703700  0.59632319    -0.47000
H898        H  0.06584334  0.89512548  0.68404597     0.06700
N899        N  0.07872588  0.98629141  0.66629652     0.01300
N900        N  0.01482846  0.57609477  0.61565003     0.01000
C901        C  0.99806099  0.60723493  0.58534643     0.42600
N902        N  0.42751498  0.97666927  0.66683801    -0.25600
C903        C  0.03546460  0.90932863  0.59500635    -0.06500
N904        N  0.47579164  0.89892132  0.68194975    -0.46700
N905        N  0.02721600  0.59619976  0.59792231    -0.38900
C906        C  0.00275306  0.89480602  0.58335616     0.42400
N907        N  0.07735996  0.98800950  0.61433380     0.01200
N908        N  0.42791993  0.97715459  0.61521677    -0.25600
N909        N  0.02432058  0.92471920  0.66573255    -0.26100
N910        N  0.42586228  0.51284411  0.61513536     0.00900
H911        H  0.40593462  0.93532691  0.59287493     0.06800
H912        H  0.43772139  0.59516391  0.59277909     0.06800
N913        N  0.07462117  0.52360528  0.61505928    -0.26200
N914        N  0.48021457  0.57387785  0.66724290    -0.25800
N915        N  0.48740652  0.92467929  0.61456466     0.01300
C916        C  0.11582230  0.50295431  0.69383223     0.42600
C917        C  0.40472168  0.96310749  0.68312274    -0.07000
N918        N  0.47921766  0.57345397  0.61563691    -0.25800
H919        H  0.43964699  0.60305834  0.68680979     0.06800
N920        N  0.10255704  0.97382492  0.68192232    -0.47000
H921        H  0.39875357  0.93444517  0.68521227     0.06800
C922        C  0.39571731  0.49581630  0.58411975     0.42500
C923        C  0.03746545  0.90131978  0.68184580    -0.06500
Co924      Co  0.45728534  0.94977761  0.64091844     0.73800
N925        N  0.40225209  0.52436565  0.68303853    -0.46700
C926        C  0.10858260  0.50728542  0.58449979     0.42700
N927        N  0.47411214  0.90549716  0.59660493    -0.46700
Co928      Co  0.45207417  0.54367419  0.64143255     0.73900
C929        C  0.46613622  0.59238094  0.59721803    -0.07000
C930        C  0.09918321  0.53506478  0.68339281    -0.06600
N931        N  0.02333084  0.92737139  0.61397592    -0.26100
N932        N  0.02912438  0.59952688  0.68279974    -0.46900
H933        H  0.09462903  0.56688850  0.59352828     0.06800
C934        C  0.40933842  0.96385845  0.59661250    -0.07000
Cl935      Cl  0.50168195  0.49979428  0.64120415    -0.50000
C936        C  0.38808800  0.49487432  0.69418834     0.42500
H937        H  0.06364122  0.90644761  0.59022924     0.06700
N938        N  0.40664729  0.52512447  0.59693712    -0.46700
C939        C  0.11665544  0.50085247  0.30911676     0.42400
N940        N  0.07650536  0.51700041  0.33441561     0.01300
C941        C  0.46487800  0.90706807  0.40274506    -0.06600
H942        H  0.43810508  0.89506143  0.31369566     0.06700
C943        C  0.40172351  0.53550948  0.31691310    -0.07000
Co944      Co  0.04373368  0.95251414  0.35919529     0.74200
N945        N  0.47864584  0.92632658  0.33291138    -0.26200
Co946      Co  0.45036517  0.95587952  0.35841702     0.74100
C947        C  0.38482589  0.50324392  0.30628403     0.42500
N948        N  0.48564532  0.57880888  0.33443288     0.00900
N949        N  0.42353654  0.98665856  0.33267903     0.01000
N950        N  0.02574654  0.90585277  0.40237433    -0.47000
H951        H  0.10449895  0.94012935  0.31581522     0.06700
N952        N  0.01409424  0.92534110  0.33303569     0.01300
N953        N  0.42393960  0.98557591  0.38432371     0.01000
C954        C  0.39198541  0.50062046  0.41440637     0.42600
N955        N  0.02112274  0.57741173  0.33454930    -0.25600
C956        C  0.08970331  0.96601192  0.40426876    -0.06500
N957        N  0.10169582  0.52986026  0.31984178    -0.46700
N958        N  0.40401121  0.97212672  0.40175352    -0.46900
C959        C  0.10379355  0.49754827  0.41711764     0.42400
N960        N  0.01299073  0.92553870  0.38462115     0.01200
N961        N  0.02063774  0.57418718  0.38608921    -0.25600
N962        N  0.07442200  0.98111440  0.33421913    -0.26100
N963        N  0.48542179  0.57584736  0.38621047     0.00900
H964        H  0.06201578  0.59497610  0.40945764     0.06800
H965        H  0.40265789  0.56172354  0.40738055     0.06800
N966        N  0.47768117  0.92676437  0.38451110    -0.26200
N967        N  0.42520200  0.52259766  0.33310508    -0.25800
N968        N  0.07439121  0.51547209  0.38628448     0.01300
C969        C  0.49892542  0.88563368  0.30731248     0.42600
C970        C  0.03407213  0.60210061  0.31910992    -0.07000
N971        N  0.42580742  0.52134235  0.38467455    -0.25800
H972        H  0.39516937  0.56384542  0.31430376     0.06800
N973        N  0.02722607  0.90093804  0.31824936    -0.47000
H974        H  0.06242034  0.60898180  0.31674548     0.06800
C975        C  0.00151498  0.60518881  0.41737109     0.42500
C976        C  0.09837732  0.96845963  0.31855816    -0.06500
Co977      Co  0.04875941  0.54656052  0.36013660     0.73800
N978        N  0.47308477  0.60404193  0.31981788    -0.46700
C979        C  0.99689206  0.89352874  0.41478251     0.42700
N980        N  0.09357821  0.52734892  0.40477363    -0.46700
Co981      Co  0.45504234  0.55022760  0.35945736     0.73900
C982        C  0.40638874  0.53343641  0.40297288    -0.07000
C983        C  0.46630736  0.90224330  0.31681832    -0.06600
N984        N  0.07192714  0.97974047  0.38565439    -0.26100
N985        N  0.39909175  0.97407530  0.31732476    -0.46900
H986        H  0.43651178  0.90243118  0.40626113     0.06800
C987        C  0.03358261  0.59198196  0.40504753    -0.07000
Cl988      Cl  0.49966989  0.50132602  0.35906188    -0.50000
C989        C  0.50215155  0.61998411  0.30948288     0.42500
H990        H  0.09224137  0.93739627  0.40828315     0.06700
N991        N  0.47287220  0.59431241  0.40453101    -0.46700
C992        C  0.00668317  0.78449821  0.51148600     0.02200
C993        C  0.00861669  0.78250247  0.48644858     0.02200
C994        C  0.00698383  0.74835710  0.47544157    -0.18400
C995        C  0.00489130  0.71622655  0.48860153     0.02200
C996        C  0.00333053  0.71809676  0.51346058     0.02200
C997        C  0.00487017  0.75205315  0.52458507    -0.18400
H998        H  0.00364484  0.75326116  0.54380865     0.04200
H999        H  0.00652073  0.74668588  0.45622582     0.04200
C1000       C  0.28403148  0.99899256  0.48741355     0.02200
C1001       C  0.28423893  0.00046591  0.51239470     0.02200
C1002       C  0.25112272  0.99883377  0.52445044    -0.18400
C1003       C  0.21786949  0.99727586  0.51227833     0.02200
C1004       C  0.21770001  0.99594257  0.48728911     0.02200
C1005       C  0.25082588  0.99701282  0.47521676    -0.18400
H1006       H  0.25076703  0.99619355  0.45598688     0.04200
H1007       H  0.25116793  0.99968175  0.54367673     0.04200
C1008       C  0.00128443  0.75250220  0.24823316    -0.02600
C1009       C  0.99556328  0.85503735  0.26832859    -0.20400
C1010       C  0.50074401  0.85216309  0.29307422    -0.07000
C1011       C  0.50706910  0.81798132  0.30337024     0.13900
C1012       C  0.50843173  0.78699787  0.28884451    -0.20500
C1013       C  0.00168975  0.78863100  0.26371785    -0.07000
C1014       C  0.99725158  0.82441145  0.25353245     0.13900
C1015       C  0.99447301  0.83206897  0.22722510    -0.23800
H1016       H  0.99118703  0.88177136  0.26073994     0.15200
H1017       H  0.51497437  0.76166055  0.29746588     0.15200
C1018       C  0.51211568  0.81416041  0.32981971    -0.23800
H1019       H  0.01970493  0.82439525  0.21812187     0.05400
H1020       H  0.49431249  0.86192023  0.22374440     0.08600
H1021       H  0.97044957  0.81865066  0.21931402     0.08600
H1022       H  0.48775878  0.82435887  0.33908048     0.08600
H1023       H  0.03802293  0.83099837  0.33469398     0.08600
H1024       H  0.51609199  0.78540290  0.33518721     0.05400
C1025       C  0.02992616  0.65844687  0.27831735    -0.20400
C1026       C  0.50145374  0.65295633  0.29399957    -0.07000
C1027       C  0.47397139  0.67929213  0.29473797     0.13900
C1028       C  0.47657176  0.71031466  0.28018432    -0.20500
C1029       C  0.00536461  0.71706476  0.26428165    -0.07000
C1030       C  0.03260127  0.68890222  0.26318614     0.13900
C1031       C  0.06487467  0.68749620  0.24673528    -0.23800
H1032       H  0.05067401  0.63778867  0.27771407     0.15200
H1033       H  0.45527540  0.73022755  0.28143061     0.15200
C1034       C  0.44207912  0.67566797  0.31122920    -0.23800
H1035       H  0.07617757  0.65969887  0.24549136     0.05400
H1036       H  0.08744907  0.70420166  0.25400991     0.08600
H1037       H  0.05798345  0.69423245  0.22823120     0.08600
H1038       H  0.45184112  0.67342756  0.32984940     0.08600
H1039       H  0.42560247  0.65127827  0.30645232     0.08600
H1040       H  0.42395175  0.69953562  0.31014195     0.05400
C1041       C  0.03452364  0.64086730  0.44831340    -0.20400
C1042       C  0.00099302  0.62911803  0.43872967    -0.07000
C1043       C  0.46889712  0.64138149  0.44957351     0.13900
C1044       C  0.47092850  0.66763930  0.46766894    -0.20500
C1045       C  0.00433623  0.68174023  0.47525716    -0.07000
C1046       C  0.03660611  0.66733975  0.46607021     0.13900
C1047       C  0.07378156  0.68062780  0.47368166    -0.23800
H1048       H  0.05968161  0.63087768  0.44128067     0.15200
H1049       H  0.44619206  0.67871707  0.47487356     0.15200
C1050       C  0.43192516  0.62773784  0.44189268    -0.23800
H1051       H  0.08834084  0.69204388  0.45811835     0.05400
H1052       H  0.08948888  0.65750308  0.48093801     0.08600
H1053       H  0.07289880  0.70202691  0.48747798     0.08600
H1054       H  0.43057711  0.59769450  0.44363843     0.08600
H1055       H  0.42639079  0.63589322  0.42326865     0.08600
H1056       H  0.40999560  0.63913072  0.45297986     0.05400
C1057       C  0.03164188  0.84670686  0.43614664    -0.20400
C1058       C  0.00015566  0.86783527  0.43501941    -0.07000
C1059       C  0.47437899  0.86452977  0.45357008     0.13900
C1060       C  0.47905204  0.83794135  0.47116356    -0.20500
C1061       C  0.00882179  0.81469574  0.47074447    -0.07000
C1062       C  0.03621612  0.81999663  0.45356762     0.13900
C1063       C  0.07045196  0.79774031  0.45349687    -0.23800
H1064       H  0.05238644  0.85010775  0.42274946     0.15200
H1065       H  0.45812424  0.83368034  0.48434634     0.15200
C1066       C  0.44112097  0.88766092  0.45467288    -0.23800
H1067       H  0.09007612  0.80783964  0.44006202     0.05400
H1068       H  0.06433073  0.76894838  0.44919753     0.08600
H1069       H  0.08402261  0.79916018  0.47109411     0.08600
H1070       H  0.42160184  0.87825511  0.44094672     0.08600
H1071       H  0.44842342  0.91679053  0.45220303     0.08600
H1072       H  0.42724693  0.88501631  0.47204754     0.05400
C1073       C  0.15093755  0.96561062  0.44014301    -0.20400
C1074       C  0.12972801  0.99679783  0.43734760    -0.07000
C1075       C  0.13435870  0.02591775  0.45355643     0.13900
C1076       C  0.16159219  0.02378699  0.47113415    -0.20500
C1077       C  0.18416982  0.99340973  0.47278475    -0.07000
C1078       C  0.17805522  0.96354283  0.45747057     0.13900
C1079       C  0.20025725  0.92931736  0.45835374    -0.23800
H1080       H  0.14760115  0.44293578  0.42807338     0.15200
H1081       H  0.16655362  0.04670390  0.48284541     0.15200
C1082       C  0.11095295  0.05920571  0.45246783    -0.23800
H1083       H  0.18200818  0.40555697  0.46136103     0.05400
H1084       H  0.22098970  0.92940803  0.47266686     0.08600
H1085       H  0.21440006  0.42573609  0.44117005     0.08600
H1086       H  0.08186524  0.05112551  0.45350999     0.08600
H1087       H  0.11595380  0.57426103  0.43573166     0.08600
H1088       H  0.11694689  0.07810886  0.46737833     0.05400
C1089       C  0.32502523  0.96627250  0.46103369    -0.20400
C1090       C  0.31719142  0.99860216  0.47288368    -0.07000
C1091       C  0.33549708  0.53097030  0.46653764     0.13900
C1092       C  0.36098607  0.53029127  0.44818510    -0.20500
C1093       C  0.36753029  0.99833889  0.43527624    -0.07000
C1094       C  0.34932503  0.96571398  0.44202458     0.13900
C1095       C  0.35331905  0.93058489  0.42865583    -0.23800
H1096       H  0.30999784  0.94176692  0.46569096     0.15200
H1097       H  0.37478352  0.55532799  0.44345058     0.15200
C1098       C  0.32682538  0.56659588  0.47820219    -0.23800
H1099       H  0.33662556  0.90824154  0.43639260     0.05400
H1100       H  0.38192950  0.92199334  0.42928785     0.08600
H1101       H  0.34444963  0.93422766  0.40994779     0.08600
H1102       H  0.33376476  0.56521791  0.49732039     0.08600
H1103       H  0.29749743  0.57250320  0.47604568     0.08600
H1104       H  0.34253140  0.58955574  0.47036021     0.05400
C1105       C  0.13644397  0.97461054  0.55076745    -0.20400
C1106       C  0.13344026  0.00716488  0.56369522    -0.07000
C1107       C  0.15613080  0.53717239  0.55736785     0.13900
C1108       C  0.18049549  0.53358544  0.53859588    -0.20500
C1109       C  0.18475947  0.00059778  0.52675529    -0.07000
C1110       C  0.16238392  0.97063338  0.53282223     0.13900
C1111       C  0.16647910  0.93366868  0.52181154    -0.23800
H1112       H  0.11952861  0.95134557  0.55542256     0.15200
H1113       H  0.19839894  0.55619009  0.53406800     0.15200
C1114       C  0.15751824  0.57237339  0.57095633    -0.23800
H1115       H  0.17225879  0.91336272  0.53589877     0.05400
H1116       H  0.18891213  0.93270865  0.50893437     0.08600
H1117       H  0.14092377  0.42577150  0.51252281     0.08600
H1118       H  0.16145532  0.06705624  0.59016687     0.08600
H1119       H  0.13253349  0.58785938  0.56751925     0.08600
H1120       H  0.18043255  0.59018663  0.56526005     0.05400
C1121       C  0.34894008  0.52861641  0.56136609    -0.20400
C1122       C  0.37087381  0.99781577  0.56323314    -0.07000
C1123       C  0.36811349  0.97068601  0.54533725     0.13900
C1124       C  0.34149036  0.97385205  0.52747309    -0.20500
C1125       C  0.31775888  0.00328786  0.52696718    -0.07000
C1126       C  0.32258086  0.53175076  0.54355750     0.13900
C1127       C  0.29980908  0.56557283  0.54331640    -0.23800
H1128       H  0.35140496  0.55013617  0.57442213     0.15200
H1129       H  0.33764365  0.95206510  0.51474026     0.15200
C1130       C  0.39213305  0.93791695  0.54485832    -0.23800
H1131       H  0.31785226  0.58991991  0.54230556     0.05400
H1132       H  0.28371142  0.06690452  0.55988804     0.08600
H1133       H  0.28092299  0.56676633  0.52795259     0.08600
H1134       H  0.38309294  0.91837208  0.55860063     0.08600
H1135       H  0.42098157  0.94605148  0.54757865     0.08600
H1136       H  0.39021233  0.92349570  0.52757938     0.05400
C1137       C  0.46760536  0.65119590  0.55870962    -0.20400
C1138       C  0.99917987  0.63246165  0.56476732    -0.07000
C1139       C  0.03113815  0.63891576  0.55138231     0.13900
C1140       C  0.03099454  0.66547677  0.53351880    -0.20500
C1141       C  0.99989788  0.68560772  0.52864959    -0.07000
C1142       C  0.46761167  0.67788058  0.54095718     0.13900
C1143       C  0.43320751  0.69823840  0.53564145    -0.23800
H1144       H  0.44286791  0.64614823  0.56846053     0.15200
H1145       H  0.05578517  0.67183480  0.52412184     0.15200
C1146       C  0.06572383  0.61852207  0.55576996    -0.23800
H1147       H  0.41013284  0.68811789  0.54648943     0.05400
H1148       H  0.42579964  0.69484550  0.51664865     0.08600
H1149       H  0.43708855  0.72758795  0.53953348     0.08600
H1150       H  0.06042918  0.58880395  0.55454263     0.08600
H1151       H  0.07689558  0.62561513  0.57351025     0.08600
H1152       H  0.08688862  0.62558619  0.54252699     0.05400
C1153       C  0.47196659  0.82289468  0.53878628    -0.20400
C1154       C  0.00335127  0.81884035  0.52516078    -0.07000
C1155       C  0.03294437  0.84289536  0.52906438     0.13900
C1156       C  0.03093898  0.86879654  0.54729408    -0.20500
C1157       C  0.00065548  0.87052443  0.56229456    -0.07000
C1158       C  0.47022347  0.84779016  0.55753324     0.13900
C1159       C  0.43677410  0.84722322  0.57281028    -0.23800
H1160       H  0.44940019  0.80428170  0.53568503     0.15200
H1161       H  0.05384720  0.88692194  0.55034216     0.15200
C1162       C  0.06743548  0.84028984  0.51506581    -0.23800
H1163       H  0.41638884  0.82680992  0.56661244     0.05400
H1164       H  0.42364788  0.87411631  0.57231280     0.08600
H1165       H  0.44423375  0.84013862  0.59135575     0.08600
H1166       H  0.06209200  0.84781199  0.49637930     0.08600
H1167       H  0.07819285  0.81226874  0.51609493     0.08600
H1168       H  0.08878176  0.85923267  0.52185495     0.05400
C1169       C  0.06797886  0.76696497  0.24272448    -0.20400
C1170       C  0.03443566  0.75835049  0.23123009    -0.07000
C1171       C  0.03535534  0.75680058  0.20565655     0.13900
C1172       C  0.06912086  0.75418075  0.19430702    -0.20500
C1173       C  0.10176655  0.75857016  0.20669999    -0.07000
C1174       C  0.10122515  0.76724929  0.23082887     0.13900
C1175       C  0.13596220  0.77447594  0.24437056    -0.23800
H1176       H  0.06878397  0.77054036  0.26178986     0.15200
H1177       H  0.07004291  0.75039497  0.17520873     0.15200
C1178       C  0.00374348  0.76119794  0.18869810    -0.23800
H1179       H  0.13082607  0.78043175  0.26336172     0.05400
H1180       H  0.15043127  0.79822550  0.23653504     0.08600
H1181       H  0.15363590  0.75028298  0.24343282     0.08600
H1182       H  0.97888014  0.77144336  0.19663684     0.08600
H1183       H  0.99808928  0.73533374  0.17918387     0.08600
H1184       H  0.01088459  0.78210038  0.17519406     0.05400
C1185       C  0.43486956  0.77151013  0.24170794    -0.20400
C1186       C  0.46374096  0.74790722  0.23574106    -0.07000
C1187       C  0.45413529  0.71860825  0.22002290     0.13900
C1188       C  0.42156492  0.72028030  0.20675582    -0.20500
C1189       C  0.39666569  0.74836857  0.20989284    -0.07000
C1190       C  0.40226254  0.77269781  0.22880810     0.13900
C1191       C  0.37343448  0.79905726  0.23631284    -0.23800
H1192       H  0.43728875  0.78994658  0.25649973     0.15200
H1193       H  0.41572890  0.69965037  0.19350862     0.15200
C1194       C  0.47711376  0.68535561  0.21666675    -0.23800
H1195       H  0.38068123  0.81290180  0.25322409     0.05400
H1196       H  0.34728459  0.78435291  0.23903175     0.08600
H1197       H  0.37000141  0.82059765  0.22281084     0.08600
H1198       H  0.47834630  0.66947104  0.23333965     0.08600
H1199       H  0.50455193  0.69271093  0.21064657     0.08600
H1200       H  0.46544822  0.66676097  0.20302979     0.05400
C1201       C  0.21105010  0.57365280  0.04121920    -0.20400
C1202       C  0.24310270  0.56612361  0.02902382    -0.07000
C1203       C  0.27569961  0.58375850  0.03580697     0.13900
C1204       C  0.27521581  0.60920190  0.05422798    -0.20500
C1205       C  0.24338142  0.61619780  0.06698457    -0.07000
C1206       C  0.21070715  0.59801057  0.06030913     0.13900
C1207       C  0.17585960  0.60203724  0.07388525    -0.23800
H1208       H  0.18653047  0.55848656  0.03666724     0.15200
H1209       H  0.30037938  0.62279981  0.05905863     0.15200
C1210       C  0.31143479  0.57447380  0.02463919    -0.23800
H1211       H  0.15349621  0.58510894  0.06628318     0.05400
H1212       H  0.16696588  0.63062836  0.07336198     0.08600
H1213       H  0.17995601  0.59336850  0.09258016     0.08600
H1214       H  0.31128180  0.58283521  0.00582257     0.08600
H1215       H  0.31630072  0.54482234  0.02600997     0.08600
H1216       H  0.33455051  0.58885058  0.03341702     0.05400
C1217       C  0.28095471  0.89870533  0.05749786    -0.20400
C1218       C  0.25063123  0.87582432  0.06054564    -0.07000
C1219       C  0.22091887  0.87867189  0.04451061     0.13900
C1220       C  0.21979954  0.90813610  0.02872368    -0.20500
C1221       C  0.24874434  0.93303475  0.02734197    -0.07000
C1222       C  0.28056206  0.92701371  0.04086291     0.13900
C1223       C  0.31400235  0.95061716  0.03796153    -0.23800
H1224       H  0.30445656  0.89567345  0.06900188     0.15200
H1225       H  0.19597396  0.91193118  0.01768669     0.15200
C1226       C  0.19060102  0.85085021  0.04291611    -0.23800
H1227       H  0.33693786  0.94081393  0.04904355     0.05400
H1228       H  0.30847683  0.97896862  0.04332981     0.08600
H1229       H  0.32270599  0.95027149  0.01914248     0.08600
H1230       H  0.16495709  0.86271930  0.04943284     0.08600
H1231       H  0.19662957  0.82560037  0.05283899     0.08600
H1232       H  0.18666515  0.84257500  0.02411842     0.05400
C1233       C  0.28075275  0.57200432  0.96357070    -0.20400
C1234       C  0.24707967  0.56708457  0.97453305    -0.07000
C1235       C  0.21756320  0.58846177  0.96727037     0.13900
C1236       C  0.22249797  0.61410948  0.94901150    -0.20500
C1237       C  0.25615134  0.61863223  0.93750288    -0.07000
C1238       C  0.28603639  0.59769293  0.94549233     0.13900
C1239       C  0.32332066  0.60046190  0.93481013    -0.23800
H1240       H  0.30283108  0.55426929  0.96859577     0.15200
H1241       H  0.19945552  0.62995435  0.94319459     0.15200
C1242       C  0.18046667  0.58287600  0.97782017    -0.23800
H1243       H  0.34211913  0.58005344  0.94241149     0.05400
H1244       H  0.33541090  0.62752099  0.93883375     0.08600
H1245       H  0.32185217  0.59548843  0.91541089     0.08600
H1246       H  0.18141840  0.58908286  0.99702834     0.08600
H1247       H  0.17130567  0.55428351  0.97522604     0.08600
H1248       H  0.16004756  0.60092200  0.96946993     0.05400
C1249       C  0.27175095  0.91616961  0.96980597    -0.20400
C1250       C  0.23935163  0.93431727  0.97415766    -0.07000
C1251       C  0.20745821  0.92418239  0.96179942     0.13900
C1252       C  0.20910055  0.89704778  0.94450658    -0.20500
C1253       C  0.24206011  0.88036523  0.93878696    -0.07000
C1254       C  0.27364874  0.88939190  0.95217444     0.13900
C1255       C  0.30951687  0.87144868  0.94801282    -0.23800
H1256       H  0.29609434  0.92438194  0.97941758     0.15200
H1257       H  0.18461271  0.89025008  0.93470979     0.15200
C1258       C  0.17185077  0.94270626  0.96635623    -0.23800
H1259       H  0.33040976  0.88040341  0.96112606     0.05400
H1260       H  0.31982514  0.87867239  0.93014524     0.08600
H1261       H  0.30626896  0.84150223  0.94966017     0.08600
H1262       H  0.17403048  0.97202726  0.96188736     0.08600
H1263       H  0.16442115  0.93977238  0.98530600     0.08600
H1264       H  0.14944650  0.93080753  0.95548726     0.05400
C1265       C  0.50108959  0.71314926  0.71035398    -0.20400
C1266       C  0.50206631  0.71229494  0.73552486    -0.07000
C1267       C  0.00736026  0.67717432  0.74629335     0.13900
C1268       C  0.00645953  0.64560829  0.73225258    -0.20500
C1269       C  0.50228939  0.64741963  0.70779486    -0.07000
C1270       C  0.50075693  0.68145495  0.69656294     0.13900
C1271       C  0.49897600  0.68437895  0.66988764    -0.23800
H1272       H  0.50097152  0.73853239  0.70088765     0.15200
H1273       H  0.00914412  0.61910210  0.74047332     0.15200
C1274       C  0.01284408  0.67126980  0.77267099    -0.23800
H1275       H  0.49813632  0.71311048  0.66383421     0.05400
H1276       H  0.47418529  0.67029532  0.66313898     0.08600
H1277       H  0.52328058  0.67165905  0.66202617     0.08600
H1278       H  0.99250788  0.68605160  0.78318710     0.08600
H1279       H  0.04073872  0.67955395  0.77795453     0.08600
H1280       H  0.01005151  0.64214613  0.77764554     0.05400
C1281       C  0.02453585  0.81294093  0.74017927    -0.20400
C1282       C  0.49838045  0.78487451  0.73517079    -0.07000
C1283       C  0.47146984  0.79403894  0.71763922     0.13900
C1284       C  0.47481219  0.82637940  0.70440019    -0.20500
C1285       C  0.50296747  0.85157278  0.70832680    -0.07000
C1286       C  0.02769059  0.84516888  0.72691525     0.13900
C1287       C  0.05605625  0.87304534  0.73411946    -0.23800
H1288       H  0.04281431  0.81075363  0.75508571     0.15200
H1289       H  0.45498990  0.83183988  0.69057708     0.15200
C1290       C  0.43838216  0.77136142  0.71175155    -0.23800
H1291       H  0.06974901  0.86568745  0.75104405     0.05400
H1292       H  0.04328461  0.89994453  0.73664082     0.08600
H1293       H  0.07747292  0.87499778  0.72049452     0.08600
H1294       H  0.43694728  0.74603274  0.72166106     0.08600
H1295       H  0.43835328  0.76426197  0.69259931     0.08600
H1296       H  0.41353788  0.78700195  0.71567989     0.05400
C1297       C  0.09965065  0.74210994  0.77195090    -0.20400
C1298       C  0.09644993  0.74413209  0.79644227    -0.07000
C1299       C  0.06194473  0.74824468  0.80656233     0.13900
C1300       C  0.03103559  0.74944270  0.79178786    -0.20500
C1301       C  0.03340310  0.74818149  0.76662882    -0.07000
C1302       C  0.06941105  0.74527495  0.75688338     0.13900
C1303       C  0.07848509  0.74629613  0.73077892    -0.23800
H1304       H  0.12647938  0.73944180  0.76438728     0.15200
H1305       H  0.00512297  0.75004220  0.80048415     0.15200
C1306       C  0.05765059  0.75066654  0.83309045    -0.23800
H1307       H  0.08857112  0.71933863  0.72516277     0.05400
H1308       H  0.10014784  0.76700023  0.72765475     0.08600
H1309       H  0.05597664  0.75412440  0.71911247     0.08600
H1310       H  0.07279613  0.77475936  0.83993800     0.08600
H1311       H  0.06844114  0.72575930  0.84161385     0.08600
H1312       H  0.02876784  0.75340222  0.83825884     0.05400
C1313       C  0.45565738  0.78141372  0.77823700    -0.20400
C1314       C  0.46154809  0.74907502  0.76509322    -0.07000
C1315       C  0.43193836  0.72263707  0.76534922     0.13900
C1316       C  0.40156979  0.72873531  0.77980457    -0.20500
C1317       C  0.39712404  0.76030639  0.79309481    -0.07000
C1318       C  0.42443029  0.78749057  0.79187624     0.13900
C1319       C  0.42187000  0.82278240  0.80520690    -0.23800
H1320       H  0.47647468  0.80243635  0.77815861     0.15200
H1321       H  0.38030836  0.70811550  0.78070201     0.15200
C1322       C  0.42884239  0.68757770  0.75119170    -0.23800
H1323       H  0.44693408  0.83963576  0.80345655     0.05400
H1324       H  0.41779402  0.81741581  0.82439936     0.08600
H1325       H  0.39929048  0.83901860  0.79782137     0.08600
H1326       H  0.44265833  0.66519342  0.76056559     0.08600
H1327       H  0.43749495  0.69005057  0.73258707     0.08600
H1328       H  0.40014541  0.67822957  0.74950938     0.05400
C1329       C  0.31468080  0.97166547  0.73973847    -0.20400
C1330       C  0.28945546  0.50014238  0.73641042    -0.07000
C1331       C  0.30114110  0.52980530  0.72158627     0.13900
C1332       C  0.33321728  0.52676441  0.70831154    -0.20500
C1333       C  0.35559056  0.49625783  0.70985724    -0.07000
C1334       C  0.34682621  0.96904079  0.72662451     0.13900
C1335       C  0.37135289  0.93734789  0.73155601    -0.23800
H1336       H  0.30983711  0.95081101  0.75277590     0.15200
H1337       H  0.34079870  0.54864546  0.69635974     0.15200
C1338       C  0.28074429  0.56507069  0.71910659    -0.23800
H1339       H  0.36340836  0.92252506  0.74794282     0.05400
H1340       H  0.39981228  0.94693608  0.73402806     0.08600
H1341       H  0.36933204  0.91746525  0.71687630     0.08600
H1342       H  0.28360056  0.58116550  0.73561302     0.08600
H1343       H  0.25177482  0.56034814  0.71481524     0.08600
H1344       H  0.29189144  0.58245457  0.70469369     0.05400
C1345       C  0.18357833  0.49776812  0.74439394    -0.20400
C1346       C  0.21773369  0.49877823  0.73265065    -0.07000
C1347       C  0.21634841  0.49807744  0.70697404     0.13900
C1348       C  0.18268048  0.50180222  0.69529199    -0.20500
C1349       C  0.14998807  0.50234174  0.70755392    -0.07000
C1350       C  0.15027948  0.49979957  0.73231976     0.13900
C1351       C  0.11533172  0.49958169  0.74604848    -0.23800
H1352       H  0.18298839  0.49686967  0.76360015     0.15200
H1353       H  0.18166376  0.50233615  0.67603342     0.15200
C1354       C  0.24709970  0.49009127  0.69013368    -0.23800
H1355       H  0.12022637  0.49760870  0.76547751     0.05400
H1356       H  0.09822981  0.97595603  0.74056002     0.08600
H1357       H  0.10036907  0.52505789  0.74246759     0.08600
H1358       H  0.27084767  0.97709157  0.69799723     0.08600
H1359       H  0.25532200  0.51524376  0.68057165     0.08600
H1360       H  0.23772565  0.46996769  0.67666984     0.05400
C1361       C  0.22627118  0.56265325  0.76258294    -0.20400
C1362       C  0.25292952  0.53520757  0.76559045    -0.07000
C1363       C  0.28143418  0.54333188  0.78249778     0.13900
C1364       C  0.28067374  0.57575065  0.79585594    -0.20500
C1365       C  0.25324041  0.60139671  0.79306756    -0.07000
C1366       C  0.22572128  0.59467987  0.77615233     0.13900
C1367       C  0.19625757  0.62202501  0.77151352    -0.23800
H1368       H  0.20622473  0.56080213  0.74867288     0.15200
H1369       H  0.30211594  0.58130081  0.80864711     0.15200
C1370       C  0.31432022  0.51971068  0.78631680    -0.23800
H1371       H  0.17798852  0.61357068  0.75671846     0.05400
H1372       H  0.20859718  0.64872274  0.76676362     0.08600
H1373       H  0.17920131  0.62503928  0.78752506     0.08600
H1374       H  0.33293253  0.52250746  0.77106528     0.08600
H1375       H  0.30689741  0.49088284  0.78919750     0.08600
H1376       H  0.33030430  0.52823774  0.80217339     0.05400
C1377       C  0.24208132  0.89699326  0.77072067    -0.20400
C1378       C  0.24016118  0.90062603  0.79521298    -0.07000
C1379       C  0.23879401  0.93557938  0.80512524     0.13900
C1380       C  0.24106428  0.96630931  0.79026600    -0.20500
C1381       C  0.24666990  0.96367821  0.76537777    -0.07000
C1382       C  0.24422979  0.92742014  0.75556715     0.13900
C1383       C  0.24316998  0.91901656  0.72933302    -0.23800
H1384       H  0.24176697  0.86975124  0.76337703     0.15200
H1385       H  0.23855558  0.99243749  0.79866900     0.15200
C1386       C  0.23514466  0.94046771  0.83154057    -0.23800
H1387       H  0.24173613  0.88931673  0.72585430     0.05400
H1388       H  0.26792989  0.92863892  0.72039986     0.08600
H1389       H  0.21844345  0.93017936  0.72103506     0.08600
H1390       H  0.25852117  0.92782140  0.84079449     0.08600
H1391       H  0.20958758  0.92732637  0.83768503     0.08600
H1392       H  0.23453075  0.96962166  0.83659104     0.05400
C1393       C  0.09185979  0.72288174  0.02867017    -0.20400
C1394       C  0.06697592  0.75128314  0.02743730    -0.07000
C1395       C  0.07260858  0.78234408  0.04184268     0.13900
C1396       C  0.09983330  0.78193138  0.05933061    -0.20500
C1397       C  0.12268228  0.75193043  0.06209988    -0.07000
C1398       C  0.12060645  0.72355068  0.04509625     0.13900
C1399       C  0.14840417  0.69410726  0.04303833    -0.23800
H1400       H  0.08847109  0.69959108  0.01706647     0.15200
H1401       H  0.10233813  0.80480031  0.07137311     0.15200
C1402       C  0.05016384  0.81613594  0.03936145    -0.23800
H1403       H  0.15841002  0.69313934  0.02449960     0.05400
H1404       H  0.13555296  0.66750329  0.04730923     0.08600
H1405       H  0.17259628  0.69879784  0.05440522     0.08600
H1406       H  0.03406598  0.82020446  0.05571023     0.08600
H1407       H  0.03153169  0.81502621  0.02386007     0.08600
H1408       H  0.06840939  0.84004456  0.03675627     0.05400
C1409       C  0.39598662  0.77951079  0.05535381    -0.20400
C1410       C  0.38011341  0.74676897  0.06340706    -0.07000
C1411       C  0.38960447  0.71386196  0.05199685     0.13900
C1412       C  0.41633544  0.71453803  0.03429203    -0.20500
C1413       C  0.43358201  0.74705745  0.02754643    -0.07000
C1414       C  0.42263665  0.78004082  0.03776080     0.13900
C1415       C  0.43975916  0.81579490  0.03061743    -0.23800
H1416       H  0.38874694  0.80507663  0.06340625     0.15200
H1417       H  0.42525285  0.68923657  0.02659284     0.15200
C1418       C  0.37234068  0.67784053  0.05838702    -0.23800
H1419       H  0.42762626  0.83903880  0.04015767     0.05400
H1420       H  0.43574472  0.82030452  0.01133792     0.08600
H1421       H  0.46918562  0.81576478  0.03476173     0.08600
H1422       H  0.34241776  0.67945884  0.05627383     0.08600
H1423       H  0.37941411  0.67041537  0.07691921     0.08600
H1424       H  0.38187423  0.65557452  0.04677330     0.05400
C1425       C  0.10311269  0.70695600  0.94510009    -0.20400
C1426       C  0.12023676  0.74002394  0.93903825    -0.07000
C1427       C  0.11243793  0.77156266  0.95250465     0.13900
C1428       C  0.08562841  0.76968146  0.97007778    -0.20500
C1429       C  0.06671126  0.73723224  0.97463101    -0.07000
C1430       C  0.07660197  0.70515025  0.96274385     0.13900
C1431       C  0.05931668  0.66868773  0.96803807    -0.23800
H1432       H  0.10932126  0.68235139  0.93553152     0.15200
H1433       H  0.07802406  0.79408771  0.97949061     0.15200
C1434       C  0.13171632  0.80741244  0.94852708    -0.23800
H1435       H  0.08071874  0.64916101  0.97325020     0.05400
H1436       H  0.04507892  0.65832313  0.95195286     0.08600
H1437       H  0.03953868  0.66975436  0.98275936     0.08600
H1438       H  0.12449818  0.81847805  0.93082199     0.08600
H1439       H  0.16152887  0.80374510  0.94995807     0.08600
H1440       H  0.12390871  0.82802183  0.96188454     0.05400
C1441       C  0.42783835  0.77924354  0.96475805    -0.20400
C1442       C  0.43419963  0.74448004  0.97380644    -0.07000
C1443       C  0.41381465  0.71470250  0.96506369     0.13900
C1444       C  0.38768386  0.72053271  0.94726892    -0.20500
C1445       C  0.38216522  0.75522251  0.93726595    -0.07000
C1446       C  0.40248228  0.78516574  0.94653141     0.13900
C1447       C  0.39962400  0.82322632  0.93698140    -0.23800
H1448       H  0.44455340  0.80168101  0.97109258     0.15200
H1449       H  0.37247492  0.69731696  0.94056910     0.15200
C1450       C  0.41992886  0.67631593  0.97338043    -0.23800
H1451       H  0.41956099  0.84210885  0.94544893     0.05400
H1452       H  0.37247280  0.83391621  0.94096596     0.08600
H1453       H  0.40504192  0.82356760  0.91763318     0.08600
H1454       H  0.39453262  0.66526209  0.98124717     0.08600
H1455       H  0.44186159  0.67437669  0.98685333     0.08600
H1456       H  0.42753926  0.65914826  0.95805256     0.05400
C1457       C  0.31743376  0.50529775  0.25529240    -0.20400
C1458       C  0.28345626  0.49836844  0.26641632    -0.07000
C1459       C  0.28507221  0.48894483  0.29128553     0.13900
C1460       C  0.31833412  0.49242609  0.30372330    -0.20500
C1461       C  0.35068005  0.50192837  0.29236523    -0.07000
C1462       C  0.35035614  0.50787428  0.26784210     0.13900
C1463       C  0.38494634  0.51669575  0.25480415    -0.23800
H1464       H  0.31820581  0.51001966  0.23646291     0.15200
H1465       H  0.31936444  0.48628681  0.32253101     0.15200
C1466       C  0.25488959  0.97182443  0.30577438    -0.23800
H1467       H  0.38011377  0.52043830  0.23548365     0.05400
H1468       H  0.40449600  0.99419092  0.25719577     0.08600
H1469       H  0.39713360  0.54222316  0.26191424     0.08600
H1470       H  0.23334880  0.95832587  0.29539342     0.08600
H1471       H  0.24325407  0.49231630  0.31787044     0.08600
H1472       H  0.26598563  0.94952565  0.31689374     0.05400
C1473       C  0.20690748  0.52634887  0.27999278    -0.20400
C1474       C  0.21198643  0.49762869  0.26357290    -0.07000
C1475       C  0.18255981  0.97132648  0.26162511     0.13900
C1476       C  0.15337271  0.97292697  0.27756463    -0.20500
C1477       C  0.14922052  0.50150661  0.29356882    -0.07000
C1478       C  0.17617344  0.52901058  0.29448303     0.13900
C1479       C  0.17370690  0.56074147  0.31126109    -0.23800
H1480       H  0.22795448  0.54690674  0.28193565     0.15200
H1481       H  0.13210876  0.95234352  0.27648528     0.15200
C1482       C  0.17693776  0.94261545  0.24267998    -0.23800
H1483       H  0.19799347  0.57885496  0.31026645     0.05400
H1484       H  0.17150159  0.05077097  0.32978190     0.08600
H1485       H  0.14971788  0.57737029  0.30666554     0.08600
H1486       H  0.18105522  0.91519489  0.25043837     0.08600
H1487       H  0.19325886  0.44593769  0.22667383     0.08600
H1488       H  0.14858950  0.94372963  0.23586064     0.05400
C1489       C  0.26841186  0.56713087  0.24335146    -0.20400
C1490       C  0.24618374  0.53719112  0.23604205    -0.07000
C1491       C  0.21977180  0.54500356  0.21788401     0.13900
C1492       C  0.22129604  0.57839386  0.20559493    -0.20500
C1493       C  0.24673713  0.60552548  0.21128665    -0.07000
C1494       C  0.26947939  0.60044472  0.23112432     0.13900
C1495       C  0.29376329  0.63067619  0.24030516    -0.23800
H1496       H  0.28488162  0.56536691  0.25918961     0.15200
H1497       H  0.20257721  0.58324905  0.19105147     0.15200
C1498       C  0.18932853  0.51940615  0.21085124    -0.23800
H1499       H  0.30754893  0.62308000  0.25715047     0.05400
H1500       H  0.27740352  0.65525155  0.24373606     0.08600
H1501       H  0.31526268  0.63723492  0.22730103     0.08600
H1502       H  0.17078840  0.51497451  0.22592190     0.08600
H1503       H  0.19991043  0.49367228  0.20397193     0.08600
H1504       H  0.17225263  0.53071849  0.19637019     0.05400
C1505       C  0.26294848  0.93259218  0.19564773    -0.20400
C1506       C  0.25766781  0.89931418  0.20712861    -0.07000
C1507       C  0.25569517  0.89840229  0.23192888     0.13900
C1508       C  0.25583345  0.93121953  0.24456041    -0.20500
C1509       C  0.25581912  0.96569737  0.23312380    -0.07000
C1510       C  0.26436029  0.96565444  0.20821175     0.13900
C1511       C  0.27755625  0.99776308  0.19369604    -0.23800
H1512       H  0.26697587  0.93266071  0.17657455     0.15200
H1513       H  0.25307584  0.92972172  0.26354553     0.15200
C1514       C  0.25229144  0.86280739  0.24503512    -0.23800
H1515       H  0.30203310  0.98978614  0.18362146     0.05400
H1516       H  0.28657935  0.02157888  0.20393180     0.08600
H1517       H  0.25637679  0.00576509  0.18066087     0.08600
H1518       H  0.27615027  0.84566558  0.24119127     0.08600
H1519       H  0.22716790  0.84827379  0.23925786     0.08600
H1520       H  0.25091448  0.86683806  0.26453498     0.05400
C1521       C  0.74859878  0.49872590  0.24932261    -0.02600
C1522       C  0.96690270  0.23927952  0.98826265     0.02200
C1523       C  0.96678504  0.24409444  0.01304855     0.02200
C1524       C  0.50039278  0.24761942  0.02554739    -0.18400
C1525       C  0.53355908  0.24616310  0.01350129     0.02200
C1526       C  0.53335301  0.23889937  0.98893085     0.02200
C1527       C  0.50010947  0.23616368  0.97677177    -0.18400
H1528       H  0.49999988  0.23265263  0.95768247     0.04200
H1529       H  0.50041989  0.25149891  0.04461096     0.04200
C1530       C  0.75192494  0.99956777  0.74964636    -0.02600
C1531       C  0.49833403  0.24817779  0.75043930    -0.02600
C1532       C  0.74193090  0.46728871  0.98867449     0.02200
C1533       C  0.74518141  0.46681128  0.01355152     0.02200
C1534       C  0.74460628  0.49975902  0.02586774    -0.18400
C1535       C  0.74400164  0.03313913  0.01385830     0.02200
C1536       C  0.74354741  0.03362004  0.98881393     0.02200
C1537       C  0.74183270  0.50056638  0.97659688    -0.18400
H1538       H  0.74119842  0.50070754  0.95736456     0.04200
H1539       H  0.74543899  0.49945859  0.04510121     0.04200
C1540       C  0.85745309  0.25762380  0.91590538     0.42400
N1541       N  0.82568916  0.24034335  0.88561503     0.01300
C1542       C  0.70869327  0.34888271  0.82037285    -0.06600
H1543       H  0.68260905  0.34041153  0.91083727     0.06700
C1544       C  0.66006626  0.20946003  0.90571625    -0.07000
Co1545     Co  0.79102419  0.30276763  0.86089910     0.74200
N1546       N  0.72446863  0.32187920  0.88760583    -0.26200
Co1547     Co  0.69735634  0.29252564  0.86164444     0.74100
C1548       C  0.64519830  0.24049661  0.91842662     0.42500
N1549       N  0.73898858  0.17340795  0.88565124     0.00900
N1550       N  0.67370204  0.25953471  0.88756589     0.01000
N1551       N  0.76993466  0.35445594  0.82071071    -0.47000
H1552       H  0.84187977  0.31771136  0.90903958     0.06700
N1553       N  0.76000052  0.32605546  0.88751200     0.01300
N1554       N  0.67040052  0.26163611  0.83600366     0.01000
C1555       C  0.62990956  0.24412721  0.81101613     0.42600
N1556       N  0.77449503  0.17777438  0.88532230    -0.25600
C1557       C  0.84576201  0.29280258  0.81941946    -0.06500
N1558       N  0.84668617  0.22837189  0.90301949    -0.46700
N1559       N  0.64423921  0.27358239  0.82190017    -0.46900
C1560       C  0.86491150  0.26198167  0.80893642     0.42400
N1561       N  0.75869543  0.32906676  0.83575911     0.01200
N1562       N  0.77266676  0.17752644  0.83371635    -0.25600
N1563       N  0.82191451  0.27586156  0.88614436    -0.26100
N1564       N  0.73689617  0.17413738  0.83380675     0.00900
H1565       H  0.81436696  0.14899812  0.81484534     0.06800
H1566       H  0.64326706  0.18380094  0.81698518     0.06800
N1567       N  0.72293481  0.32545363  0.83611291    -0.26200
N1568       N  0.67731391  0.22395687  0.88703672    -0.25800
N1569       N  0.82519521  0.24210267  0.83397670     0.01300
C1570       C  0.74266218  0.35473957  0.91850388     0.42600
C1571       C  0.78891922  0.15983036  0.90371514    -0.07000
N1572       N  0.67348628  0.22585465  0.83552655    -0.25800
H1573       H  0.65844207  0.18078982  0.90985092     0.06800
N1574       N  0.77202019  0.34582187  0.90560014    -0.47000
H1575       H  0.81754085  0.15972780  0.90774966     0.06800
C1576       C  0.75403651  0.13539695  0.80765848     0.42500
C1577       C  0.84078438  0.28930270  0.90457841    -0.06500
Co1578     Co  0.80001966  0.20903499  0.85944632     0.73800
N1579       N  0.72800502  0.15287410  0.90361906    -0.46700
C1580       C  0.73999345  0.36772752  0.81005913     0.42700
N1581       N  0.85042788  0.23166566  0.81892824    -0.46700
Co1582     Co  0.70626267  0.19877397  0.86030620     0.73900
C1583       C  0.64901394  0.21234699  0.82001210    -0.07000
C1584       C  0.71104145  0.33911454  0.90638996    -0.06600
N1585       N  0.82217439  0.27781339  0.83478904    -0.26100
N1586       N  0.65447054  0.27050439  0.90591853    -0.46900
H1587       H  0.68005577  0.35382681  0.81768975     0.06800
C1588       C  0.78594795  0.15412894  0.81774369    -0.07000
Cl1589     Cl  0.74866521  0.25076265  0.86022789    -0.50000
C1590       C  0.75796643  0.14301492  0.91598339     0.42500
H1591       H  0.85010781  0.32163340  0.81731598     0.06700
N1592       N  0.72481734  0.14903572  0.81877192    -0.46700
C1593       C  0.75534584  0.36513220  0.19276787     0.42400
N1594       N  0.76899323  0.32715442  0.16553191     0.01300
C1595       C  0.65659942  0.21717414  0.09753605    -0.06600
H1596       H  0.64378558  0.19345343  0.18802200     0.06700
C1597       C  0.78155890  0.15337976  0.18511355    -0.07000
Co1598     Co  0.70313818  0.29659711  0.14101552     0.74200
N1599       N  0.67528417  0.23248791  0.16795234    -0.26200
Co1600     Co  0.70324104  0.20241805  0.14274541     0.74100
C1601       C  0.74912764  0.13829444  0.19649183     0.42500
N1602       N  0.82631549  0.23405232  0.16670479     0.00900
N1603       N  0.73321081  0.17554368  0.16894131     0.01000
N1604       N  0.65764367  0.27855300  0.09659932    -0.47000
H1605       H  0.69408942  0.35628364  0.18647266     0.06700
N1606       N  0.67567048  0.26837383  0.16745547     0.01300
N1607       N  0.73184821  0.17396221  0.11716838     0.01000
C1608       C  0.74613080  0.14033549  0.08767877     0.42600
N1609       N  0.82645924  0.26992390  0.16598989    -0.25600
C1610       C  0.71770333  0.34137402  0.09570781    -0.06500
N1611       N  0.78333127  0.35064924  0.18084756    -0.46700
N1612       N  0.71789779  0.15366214  0.09995495    -0.46900
C1613       C  0.74950399  0.35190499  0.08195724     0.42400
N1614       N  0.67514363  0.26592703  0.11545546     0.01200
N1615       N  0.82356965  0.26814444  0.11432052    -0.25600
N1616       N  0.73314334  0.32641241  0.16603796    -0.26100
N1617       N  0.82412852  0.23236941  0.11475635     0.00900
H1618       H  0.84605785  0.30831624  0.09088809     0.06800
H1619       H  0.80737536  0.14951859  0.09493695     0.06800
N1620       N  0.67520680  0.23011166  0.11626569    -0.26200
N1621       N  0.76905141  0.17602024  0.16837164    -0.25800
N1622       N  0.76665561  0.32374822  0.11346894     0.01300
C1623       C  0.63751374  0.25478117  0.19462278     0.42600
C1624       C  0.84976864  0.28235023  0.18253867    -0.07000
N1625       N  0.76758918  0.17475715  0.11693163    -0.25800
H1626       H  0.80971242  0.14615882  0.18748998     0.06800
N1627       N  0.65287569  0.28274640  0.18276104    -0.47000
H1628       H  0.85735694  0.31057477  0.18489779     0.06800
C1629       C  0.85465959  0.24721587  0.08366437     0.42500
C1630       C  0.72201536  0.34957213  0.18276708    -0.06500
Co1631     Co  0.79704595  0.29790618  0.13990967     0.73800
N1632       N  0.84883947  0.22088780  0.18288281    -0.46700
C1633       C  0.64590206  0.24935062  0.08406768     0.42700
N1634       N  0.77897839  0.34089239  0.09438762    -0.46700
Co1635     Co  0.79736967  0.20378345  0.14176541     0.73900
C1636       C  0.77919670  0.15425602  0.09905203    -0.07000
C1637       C  0.65174282  0.22136803  0.18455575    -0.06600
N1638       N  0.73095553  0.32343017  0.11442554    -0.26100
N1639       N  0.72023165  0.15274187  0.18511263    -0.46900
H1640       H  0.65170856  0.18871711  0.09375392     0.06800
C1641       C  0.84208242  0.28004511  0.09548511    -0.07000
Cl1642     Cl  0.75020978  0.25017850  0.14156598    -0.50000
C1643       C  0.86414767  0.24969595  0.19403456     0.42500
H1644       H  0.68926418  0.34610339  0.09226130     0.06700
N1645       N  0.84264996  0.21871900  0.09681174    -0.46700
C1646       C  0.00534475  0.38436278  0.69272470     0.42400
N1647       N  0.98852240  0.42286303  0.66619759     0.01300
C1648       C  0.59322859  0.03796168  0.59722067    -0.06600
H1649       H  0.60468815  0.06353441  0.68695599     0.06700
C1650       C  0.96780020  0.09667003  0.68374931    -0.07000
Co1651     Co  0.55140114  0.45592461  0.64034077     0.74200
N1652       N  0.57635142  0.02207968  0.66674117    -0.26200
Co1653     Co  0.54589535  0.04982438  0.64134003     0.74100
C1654       C  0.00035558  0.11326587  0.69421379     0.42500
N1655       N  0.92577639  0.01218708  0.66721551     0.00900
N1656       N  0.51603743  0.07572691  0.66730868     0.01000
N1657       N  0.59754325  0.47682276  0.59659249    -0.47000
H1658       H  0.56546020  0.39514212  0.68436521     0.06700
N1659       N  0.57846257  0.48626047  0.66647481     0.01300
N1660       N  0.51490613  0.07599636  0.61563042     0.01000
C1661       C  0.49824879  0.10713941  0.58530394     0.42600
N1662       N  0.92764016  0.47639390  0.66675731    -0.25600
C1663       C  0.53527648  0.40933733  0.59521606    -0.06500
N1664       N  0.97616516  0.39877868  0.68173550    -0.46700
N1665       N  0.52736158  0.09607777  0.59791252    -0.38900
C1666       C  0.50259541  0.39486997  0.58351577     0.42400
N1667       N  0.57729936  0.48785112  0.61452133     0.01200
N1668       N  0.92808617  0.47712159  0.61513904    -0.25600
N1669       N  0.52401790  0.42474756  0.66595695    -0.26100
N1670       N  0.92594707  0.01283176  0.61512670     0.00900
H1671       H  0.90622038  0.43535538  0.59269830     0.06800
H1672       H  0.93756524  0.09521678  0.59287835     0.06800
N1673       N  0.57463133  0.02348124  0.61521388    -0.26200
N1674       N  0.98021082  0.07371406  0.66729370    -0.25800
N1675       N  0.98763411  0.42470228  0.61438391     0.01300
C1676       C  0.61548679  0.00296817  0.69402993     0.42600
C1677       C  0.90472830  0.46271633  0.68294094    -0.07000
N1678       N  0.97913417  0.07353790  0.61570477    -0.25800
H1679       H  0.93956978  0.10285982  0.68681093     0.06800
N1680       N  0.60221626  0.47380330  0.68214884    -0.47000
H1681       H  0.89879216  0.43402362  0.68494053     0.06800
C1682       C  0.89592362  0.99590762  0.58405442     0.42500
C1683       C  0.53709861  0.40137931  0.68211811    -0.06500
Co1684     Co  0.95750464  0.44968759  0.64078646     0.73800
N1685       N  0.90212330  0.02397246  0.68295257    -0.46700
C1686       C  0.60881269  0.00707073  0.58479173     0.42700
N1687       N  0.97430909  0.40546020  0.59646335    -0.46700
Co1688     Co  0.95209383  0.04357587  0.64146411     0.73900
C1689       C  0.96598172  0.09248285  0.59730858    -0.07000
C1690       C  0.59895131  0.03507042  0.68352357    -0.06600
N1691       N  0.52311051  0.42731672  0.61418968    -0.26100
N1692       N  0.52917699  0.09953434  0.68280588    -0.46900
H1693       H  0.59494159  0.06672112  0.59378037     0.06800
C1694       C  0.90956480  0.46388214  0.59649925    -0.07000
Cl1695     Cl  0.00179869  0.99978384  0.64112453    -0.50000
C1696       C  0.88788039  0.99441838  0.69399843     0.42500
H1697       H  0.56346854  0.40649778  0.59045754     0.06700
N1698       N  0.90675730  0.02517403  0.59693768    -0.46700
C1699       C  0.61671703  0.00056064  0.30910349     0.42400
N1700       N  0.57682012  0.01686863  0.33452592     0.01300
C1701       C  0.96449029  0.40690204  0.40246616    -0.06600
H1702       H  0.93766654  0.39529025  0.31342186     0.06700
C1703       C  0.90120518  0.03542526  0.31676120    -0.07000
Co1704     Co  0.54410586  0.45250912  0.35940820     0.74200
N1705       N  0.97825092  0.42641230  0.33268482    -0.26200
Co1706     Co  0.94999267  0.45590149  0.35823370     0.74100
C1707       C  0.88427454  0.00309898  0.30624346     0.42500
N1708       N  0.98528421  0.07878235  0.33421645     0.00900
N1709       N  0.92314779  0.48664924  0.33252889     0.01000
N1710       N  0.52613710  0.40609749  0.40267858    -0.47000
H1711       H  0.60454717  0.43989342  0.31590211     0.06700
N1712       N  0.51449606  0.42526624  0.33329903     0.01300
N1713       N  0.92357585  0.48563829  0.38414389     0.01000
C1714       C  0.89155061  0.00079280  0.41418273     0.42600
N1715       N  0.52147631  0.07741926  0.33470598    -0.25600
C1716       C  0.59016099  0.46597790  0.40438450    -0.06500
N1717       N  0.60189625  0.02963765  0.31983965    -0.46700
N1718       N  0.90363201  0.47224899  0.40158143    -0.46900
C1719       C  0.60431736  0.99746542  0.41722500     0.42400
N1720       N  0.51337085  0.42565102  0.38486912     0.01200
N1721       N  0.52112053  0.07423057  0.38626059    -0.25600
N1722       N  0.57471810  0.48099196  0.33438438    -0.26100
N1723       N  0.98494045  0.07586573  0.38599507     0.00900
H1724       H  0.56251561  0.09512863  0.40960861     0.06800
H1725       H  0.90218248  0.06187642  0.40704149     0.06800
N1726       N  0.97730432  0.42670677  0.38428540    -0.26200
N1727       N  0.92479220  0.02257320  0.33290539    -0.25800
N1728       N  0.57489346  0.01548041  0.38642156     0.01300
C1729       C  0.99846145  0.38589012  0.30694409     0.42600
C1730       C  0.53436946  0.10210494  0.31924026    -0.07000
N1731       N  0.92538376  0.02140644  0.38443458    -0.25800
H1732       H  0.89458078  0.06373599  0.31414737     0.06800
N1733       N  0.52767295  0.40077564  0.31859450    -0.47000
H1734       H  0.56270883  0.10896769  0.31682921     0.06800
C1735       C  0.50199217  0.10526212  0.41754038     0.42500
C1736       C  0.59851316  0.46824057  0.31865435    -0.06500
Co1737     Co  0.54918704  0.04655215  0.36027765     0.73800
N1738       N  0.97277766  0.10403449  0.31960047    -0.46700
C1739       C  0.49728539  0.39382418  0.41509973     0.42700
N1740       N  0.59413230  0.02731484  0.40490654    -0.46700
Co1741     Co  0.95462560  0.05023986  0.35922777     0.73900
C1742       C  0.90592414  0.03356579  0.40269123    -0.07000
C1743       C  0.96587022  0.40243832  0.31653539    -0.06600
N1744       N  0.57237088  0.47975422  0.38580221    -0.26100
N1745       N  0.89862984  0.47399841  0.31725911    -0.46900
H1746       H  0.93611309  0.40225898  0.40596358     0.06800
C1747       C  0.53406548  0.09209267  0.40519846    -0.07000
Cl1748     Cl  0.99926945  0.00132694  0.35886743    -0.50000
C1749       C  0.00188911  0.11997815  0.30931889     0.42500
H1750       H  0.59264344  0.43734437  0.40838388     0.06700
N1751       N  0.97238163  0.09431131  0.40432346    -0.46700
C1752       C  0.50691694  0.28460803  0.51169494     0.02200
C1753       C  0.50866636  0.28271656  0.48665875     0.02200
C1754       C  0.50675256  0.24863205  0.47558761    -0.18400
C1755       C  0.50463042  0.21645356  0.48870111     0.02200
C1756       C  0.50332648  0.21823535  0.51357002     0.02200
C1757       C  0.50506500  0.25213604  0.52475187    -0.18400
H1758       H  0.50397490  0.25328583  0.54398278     0.04200
H1759       H  0.50623688  0.24704850  0.45636893     0.04200
C1760       C  0.78404884  0.49863645  0.48748322     0.02200
C1761       C  0.78446211  0.50017493  0.51245556     0.02200
C1762       C  0.75146414  0.49839004  0.52464226    -0.18400
C1763       C  0.71812645  0.49669529  0.51258599     0.02200
C1764       C  0.71775629  0.49531315  0.48760451     0.02200
C1765       C  0.75076854  0.49640110  0.47540936    -0.18400
H1766       H  0.75055691  0.49551204  0.45617892     0.04200
H1767       H  0.75166330  0.49928697  0.54386547     0.04200
C1768       C  0.50205058  0.25254548  0.24829484    -0.02600
C1769       C  0.49728761  0.35506512  0.26862928    -0.20400
C1770       C  0.00018397  0.35238199  0.29273093    -0.07000
C1771       C  0.00743417  0.31837384  0.30300064     0.13900
C1772       C  0.00852955  0.28731830  0.28854883    -0.20500
C1773       C  0.50260136  0.28857043  0.26391892    -0.07000
C1774       C  0.49906170  0.32451140  0.25378484     0.13900
C1775       C  0.49722713  0.33243976  0.22748470    -0.23800
H1776       H  0.49364888  0.38192375  0.26105325     0.15200
H1777       H  0.01575592  0.26212502  0.29711728     0.15200
C1778       C  0.01372337  0.31478464  0.32935531    -0.23800
H1779       H  0.52266653  0.32461029  0.21869790     0.05400
H1780       H  0.99115384  0.36150021  0.22343789     0.08600
H1781       H  0.47328589  0.31935864  0.21923314     0.08600
H1782       H  0.98969048  0.32477431  0.33906344     0.08600
H1783       H  0.53627493  0.33008394  0.33569799     0.08600
H1784       H  0.01826211  0.28611424  0.33471769     0.05400
C1785       C  0.53020400  0.15832902  0.27843165    -0.20400
C1786       C  0.00125713  0.15305432  0.29395542    -0.07000
C1787       C  0.97394862  0.17953118  0.29494834     0.13900
C1788       C  0.97650046  0.21058700  0.28045363    -0.20500
C1789       C  0.50567926  0.21688039  0.26420233    -0.07000
C1790       C  0.53284251  0.18861888  0.26316610     0.13900
C1791       C  0.56488773  0.18673101  0.24654104    -0.23800
H1792       H  0.55099537  0.13771777  0.27792294     0.15200
H1793       H  0.95527547  0.23055824  0.28185436     0.15200
C1794       C  0.94230166  0.17602236  0.31165323    -0.23800
H1795       H  0.57527598  0.15860982  0.24492520     0.05400
H1796       H  0.58802212  0.20259084  0.25389873     0.08600
H1797       H  0.55808818  0.19406939  0.22814032     0.08600
H1798       H  0.95235546  0.17358562  0.33019829     0.08600
H1799       H  0.92556673  0.15178736  0.30692231     0.08600
H1800       H  0.92433207  0.20002599  0.31077026     0.05400
C1801       C  0.53487189  0.14171690  0.44815831    -0.20400
C1802       C  0.50140518  0.12925989  0.43886564    -0.07000
C1803       C  0.96852589  0.14192607  0.44914326     0.13900
C1804       C  0.97075170  0.16800635  0.46733440    -0.20500
C1805       C  0.50436415  0.18199104  0.47533056    -0.07000
C1806       C  0.53674423  0.16813702  0.46595428     0.13900
C1807       C  0.57379599  0.18189903  0.47347668    -0.23800
H1808       H  0.56009393  0.13225623  0.44090812     0.15200
H1809       H  0.94611232  0.17955091  0.47436446     0.15200
C1810       C  0.93141850  0.12935810  0.44098943    -0.23800
H1811       H  0.58802684  0.19374033  0.45791698     0.05400
H1812       H  0.58991987  0.15892461  0.48053855     0.08600
H1813       H  0.57274138  0.20306471  0.48741780     0.08600
H1814       H  0.92913940  0.09935275  0.44267998     0.08600
H1815       H  0.92667862  0.13772338  0.42231192     0.08600
H1816       H  0.90950918  0.14136571  0.45180938     0.05400
C1817       C  0.53193150  0.34689923  0.43642469    -0.20400
C1818       C  0.50054135  0.36817953  0.43534606    -0.07000
C1819       C  0.97390056  0.36397903  0.45317884     0.13900
C1820       C  0.97867022  0.33745835  0.47080340    -0.20500
C1821       C  0.50905240  0.31500039  0.47103961    -0.07000
C1822       C  0.53645534  0.32020465  0.45386043     0.13900
C1823       C  0.57062782  0.29784222  0.45379098    -0.23800
H1824       H  0.55262854  0.35018161  0.42299068     0.15200
H1825       H  0.95773144  0.33310378  0.48396801     0.15200
C1826       C  0.94040491  0.38674427  0.45416293    -0.23800
H1827       H  0.59017854  0.30772201  0.44024525     0.05400
H1828       H  0.56439841  0.26901303  0.44965855     0.08600
H1829       H  0.58433220  0.29942277  0.47133843     0.08600
H1830       H  0.92111318  0.37704892  0.44037821     0.08600
H1831       H  0.94742277  0.41594219  0.45169744     0.08600
H1832       H  0.92641564  0.38399027  0.47149115     0.05400
C1833       C  0.65105783  0.46523459  0.44044308    -0.20400
C1834       C  0.63005629  0.49655652  0.43756787    -0.07000
C1835       C  0.63458974  0.52556940  0.45386462     0.13900
C1836       C  0.66169144  0.52329811  0.47152066    -0.20500
C1837       C  0.68413496  0.49282363  0.47320769    -0.07000
C1838       C  0.67794331  0.46297002  0.45790839     0.13900
C1839       C  0.69985517  0.42856562  0.45895940    -0.23800
H1840       H  0.64772037  0.94259139  0.42835415     0.15200
H1841       H  0.66666435  0.54617482  0.48326238     0.15200
C1842       C  0.61117210  0.55884915  0.45281477    -0.23800
H1843       H  0.68135995  0.90500228  0.46206077     0.05400
H1844       H  0.72054914  0.42863139  0.47329650     0.08600
H1845       H  0.71400168  0.92468164  0.44183149     0.08600
H1846       H  0.58208603  0.55073391  0.45377389     0.08600
H1847       H  0.61625755  0.07403387  0.43610267     0.08600
H1848       H  0.61707353  0.57764946  0.46779506     0.05400
C1849       C  0.82544576  0.46618788  0.46125467    -0.20400
C1850       C  0.81707669  0.49858121  0.47284052    -0.07000
C1851       C  0.83466205  0.03119455  0.46614732     0.13900
C1852       C  0.85996333  0.03066862  0.44767738    -0.20500
C1853       C  0.86713060  0.49854223  0.43507571    -0.07000
C1854       C  0.84966448  0.46570889  0.44220798     0.13900
C1855       C  0.85448993  0.43032929  0.42928103    -0.23800
H1856       H  0.81095186  0.44149221  0.46618569     0.15200
H1857       H  0.87317192  0.05588832  0.44265612     0.15200
C1858       C  0.82549436  0.06681467  0.47764809    -0.23800
H1859       H  0.83859216  0.40774182  0.43741400     0.05400
H1860       H  0.88335262  0.42267374  0.42987200     0.08600
H1861       H  0.84529263  0.43312472  0.41057712     0.08600
H1862       H  0.83264795  0.06578990  0.49674829     0.08600
H1863       H  0.79604143  0.07218524  0.47559683     0.08600
H1864       H  0.84072618  0.08992953  0.46960635     0.05400
C1865       C  0.63695976  0.47408265  0.55129578    -0.20400
C1866       C  0.63375139  0.50679998  0.56402076    -0.07000
C1867       C  0.65625591  0.03688737  0.55750490     0.13900
C1868       C  0.68068786  0.03314747  0.53878510    -0.20500
C1869       C  0.68511868  0.50000425  0.52714152    -0.07000
C1870       C  0.66291394  0.47000637  0.53337874     0.13900
C1871       C  0.66719289  0.43292860  0.52256900    -0.23800
H1872       H  0.62017692  0.45078405  0.55607755     0.15200
H1873       H  0.69847013  0.05577756  0.53411334     0.15200
C1874       C  0.65731349  0.07236596  0.57078133    -0.23800
H1875       H  0.67305818  0.41282827  0.53676645     0.05400
H1876       H  0.68964742  0.43192116  0.50971162     0.08600
H1877       H  0.64163928  0.92483811  0.51330504     0.08600
H1878       H  0.66140972  0.56744213  0.59003508     0.08600
H1879       H  0.63213141  0.08747280  0.56726081     0.08600
H1880       H  0.67998167  0.09033453  0.56487511     0.05400
C1881       C  0.84917447  0.02869191  0.56127456    -0.20400
C1882       C  0.87119790  0.49790897  0.56313021    -0.07000
C1883       C  0.86858323  0.47081794  0.54520523     0.13900
C1884       C  0.84196364  0.47392255  0.52734112    -0.20500
C1885       C  0.81808886  0.50324248  0.52688351    -0.07000
C1886       C  0.82280401  0.03175121  0.54347038     0.13900
C1887       C  0.79984679  0.06544781  0.54326277    -0.23800
H1888       H  0.85154382  0.05018855  0.57435611     0.15200
H1889       H  0.83819775  0.45213811  0.51460078     0.15200
C1890       C  0.89273342  0.43813563  0.54470298    -0.23800
H1891       H  0.81775300  0.08989721  0.54227602     0.05400
H1892       H  0.78377534  0.56664449  0.55982175     0.08600
H1893       H  0.78095102  0.06656558  0.52789973     0.08600
H1894       H  0.88366461  0.41841376  0.55833399     0.08600
H1895       H  0.92153071  0.44634949  0.54756425     0.08600
H1896       H  0.89103368  0.42388120  0.52735802     0.05400
C1897       C  0.96744827  0.15138142  0.55878086    -0.20400
C1898       C  0.49941260  0.13249568  0.56479185    -0.07000
C1899       C  0.53147614  0.13931768  0.55158413     0.13900
C1900       C  0.53125591  0.16585815  0.53370504    -0.20500
C1901       C  0.50001841  0.18570538  0.52871633    -0.07000
C1902       C  0.96749321  0.17798760  0.54097212     0.13900
C1903       C  0.93313523  0.19840734  0.53563113    -0.23800
H1904       H  0.94276137  0.14652791  0.56862994     0.15200
H1905       H  0.55606966  0.17244218  0.52439116     0.15200
C1906       C  0.56625101  0.11935544  0.55618122    -0.23800
H1907       H  0.91004593  0.18837917  0.54650021     0.05400
H1908       H  0.92571554  0.19493520  0.51664347     0.08600
H1909       H  0.93706768  0.22776645  0.53946209     0.08600
H1910       H  0.56134557  0.08958451  0.55485077     0.08600
H1911       H  0.57704482  0.12647505  0.57401682     0.08600
H1912       H  0.58755189  0.12676290  0.54310991     0.05400
C1913       C  0.97187880  0.32263630  0.53879481    -0.20400
C1914       C  0.50360894  0.31890480  0.52538029    -0.07000
C1915       C  0.53326366  0.34280402  0.52943960     0.13900
C1916       C  0.53110448  0.36876824  0.54761204    -0.20500
C1917       C  0.50061100  0.37065634  0.56242544    -0.07000
C1918       C  0.97030870  0.34747771  0.55758775     0.13900
C1919       C  0.93711823  0.34668571  0.57310955    -0.23800
H1920       H  0.94936639  0.30390531  0.53584412     0.15200
H1921       H  0.55405234  0.38679095  0.55077075     0.15200
C1922       C  0.56793477  0.33997736  0.51565142    -0.23800
H1923       H  0.91680017  0.32608742  0.56708195     0.05400
H1924       H  0.92374422  0.37346732  0.57267515     0.08600
H1925       H  0.94494745  0.33970943  0.59160924     0.08600
H1926       H  0.56285802  0.34740796  0.49691536     0.08600
H1927       H  0.57855565  0.31191275  0.51680183     0.08600
H1928       H  0.58926797  0.35886668  0.52252105     0.05400
C1929       C  0.56899672  0.26612324  0.24332496    -0.20400
C1930       C  0.53550566  0.25820348  0.23155094    -0.07000
C1931       C  0.53675711  0.25707473  0.20597584     0.13900
C1932       C  0.57063481  0.25429668  0.19480867    -0.20500
C1933       C  0.60315378  0.25799474  0.20742017    -0.07000
C1934       C  0.60241272  0.26617336  0.23162365     0.13900
C1935       C  0.63705945  0.27267482  0.24540975    -0.23800
H1936       H  0.56954320  0.26935028  0.26242419     0.15200
H1937       H  0.57177566  0.25089581  0.17568397     0.15200
C1938       C  0.50545585  0.26203817  0.18883686    -0.23800
H1939       H  0.63175057  0.27833480  0.26442011     0.05400
H1940       H  0.65194088  0.29638108  0.23784723     0.08600
H1941       H  0.65442166  0.24826740  0.24436648     0.08600
H1942       H  0.48040295  0.27201168  0.19665040     0.08600
H1943       H  0.49996202  0.23646651  0.17895352     0.08600
H1944       H  0.51290221  0.28334042  0.17567074     0.05400
C1945       C  0.93372795  0.27041719  0.24220977    -0.20400
C1946       C  0.96289374  0.24734953  0.23595858    -0.07000
C1947       C  0.95347756  0.21791889  0.22031821     0.13900
C1948       C  0.92091114  0.21937558  0.20706816    -0.20500
C1949       C  0.89579172  0.24721890  0.21032802    -0.07000
C1950       C  0.90099915  0.27123812  0.22943641     0.13900
C1951       C  0.87162683  0.29675888  0.23726362    -0.23800
H1952       H  0.93604213  0.28869002  0.25709647     0.15200
H1953       H  0.91527630  0.19881609  0.19374462     0.15200
C1954       C  0.97663480  0.18477413  0.21704262    -0.23800
H1955       H  0.87884498  0.31066407  0.25415704     0.05400
H1956       H  0.84594790  0.28130517  0.24015485     0.08600
H1957       H  0.86726330  0.31825365  0.22384822     0.08600
H1958       H  0.97786032  0.16897091  0.23375148     0.08600
H1959       H  0.00409032  0.19222782  0.21108948     0.08600
H1960       H  0.96511314  0.16608644  0.20341259     0.05400
C1961       C  0.71152693  0.07332959  0.04090018    -0.20400
C1962       C  0.74367067  0.06600327  0.02874374    -0.07000
C1963       C  0.77617153  0.08369922  0.03561839     0.13900
C1964       C  0.77554177  0.10888761  0.05417015    -0.20500
C1965       C  0.74362772  0.11566589  0.06690439    -0.07000
C1966       C  0.71101728  0.09753072  0.06006756     0.13900
C1967       C  0.67607135  0.10145844  0.07354276    -0.23800
H1968       H  0.68708272  0.05809604  0.03626769     0.15200
H1969       H  0.80066274  0.12245551  0.05910456     0.15200
C1970       C  0.81196252  0.07472256  0.02440414    -0.23800
H1971       H  0.65372231  0.08471514  0.06574894     0.05400
H1972       H  0.66728160  0.13008065  0.07316866     0.08600
H1973       H  0.67998191  0.09252383  0.09219987     0.08600
H1974       H  0.81178446  0.08336996  0.00564059     0.08600
H1975       H  0.81694823  0.04506803  0.02558334     0.08600
H1976       H  0.83501837  0.08905438  0.03327592     0.05400
C1977       C  0.78107141  0.39829732  0.05770330    -0.20400
C1978       C  0.75058830  0.37559339  0.06068394    -0.07000
C1979       C  0.72089935  0.37879978  0.04465068     0.13900
C1980       C  0.72014140  0.40825283  0.02882345    -0.20500
C1981       C  0.74930097  0.43291477  0.02747133    -0.07000
C1982       C  0.78095399  0.42668412  0.04111408     0.13900
C1983       C  0.81452433  0.45015350  0.03839768    -0.23800
H1984       H  0.80452279  0.39505006  0.06922429     0.15200
H1985       H  0.69641276  0.41223617  0.01772988     0.15200
C1986       C  0.69019383  0.35140250  0.04309636    -0.23800
H1987       H  0.83728078  0.44025851  0.04960468     0.05400
H1988       H  0.80902637  0.47852495  0.04374541     0.08600
H1989       H  0.82346717  0.44979203  0.01962895     0.08600
H1990       H  0.66476951  0.36361925  0.04970248     0.08600
H1991       H  0.69592093  0.32602443  0.05294954     0.08600
H1992       H  0.68600992  0.34324814  0.02429662     0.05400
C1993       C  0.78182097  0.07205329  0.96326615    -0.20400
C1994       C  0.74818019  0.06687258  0.97423922    -0.07000
C1995       C  0.71853559  0.08809990  0.96698975     0.13900
C1996       C  0.72329211  0.11380735  0.94873589    -0.20500
C1997       C  0.75689883  0.11857062  0.93720620    -0.07000
C1998       C  0.78693133  0.09783927  0.94520553     0.13900
C1999       C  0.82422732  0.10098612  0.93458098    -0.23800
H2000       H  0.80403760  0.05450442  0.96830242     0.15200
H2001       H  0.70015030  0.12952239  0.94294971     0.15200
C2002       C  0.68147654  0.08229663  0.97754510    -0.23800
H2003       H  0.84321373  0.08079305  0.94222805     0.05400
H2004       H  0.83601263  0.12818060  0.93859929     0.08600
H2005       H  0.82288040  0.09596164  0.91518460     0.08600
H2006       H  0.68238267  0.08858377  0.99673889     0.08600
H2007       H  0.67251039  0.05363432  0.97499304     0.08600
H2008       H  0.66093158  0.10017142  0.96917222     0.05400
C2009       C  0.77252190  0.41544273  0.97003204    -0.20400
C2010       C  0.74032866  0.43400809  0.97426872    -0.07000
C2011       C  0.70835503  0.42423015  0.96188349     0.13900
C2012       C  0.70975513  0.39708288  0.94460670    -0.20500
C2013       C  0.74255590  0.38006070  0.93895421    -0.07000
C2014       C  0.77418618  0.38864888  0.95241058     0.13900
C2015       C  0.80987247  0.37029007  0.94828786    -0.23800
H2016       H  0.79690920  0.42337739  0.97969121     0.15200
H2017       H  0.68525336  0.39059477  0.93473683     0.15200
C2018       C  0.67294961  0.44318626  0.96636801    -0.23800
H2019       H  0.83078521  0.37891470  0.96148031     0.05400
H2020       H  0.82037286  0.37753627  0.93047411     0.08600
H2021       H  0.80630639  0.34036264  0.94982451     0.08600
H2022       H  0.67546852  0.47246625  0.96185186     0.08600
H2023       H  0.66543668  0.44041901  0.98531293     0.08600
H2024       H  0.65043983  0.43150114  0.95549484     0.05400
C2025       C  0.00095297  0.21309374  0.71027415    -0.20400
C2026       C  0.00182816  0.21228387  0.73544877    -0.07000
C2027       C  0.50786403  0.17718564  0.74633290     0.13900
C2028       C  0.50697490  0.14563795  0.73226675    -0.20500
C2029       C  0.00205789  0.14736142  0.70777692    -0.07000
C2030       C  0.00066381  0.18137717  0.69650986     0.13900
C2031       C  0.99909134  0.18425220  0.66982687    -0.23800
H2032       H  0.00093738  0.23846204  0.70078420     0.15200
H2033       H  0.50983631  0.11913183  0.74045264     0.15200
C2034       C  0.51359746  0.17124714  0.77268473    -0.23800
H2035       H  0.99832072  0.21297170  0.66374390     0.05400
H2036       H  0.97434200  0.17017038  0.66300959     0.08600
H2037       H  0.02344598  0.17149737  0.66205748     0.08600
H2038       H  0.49316684  0.18578674  0.78327245     0.08600
H2039       H  0.54144429  0.17979427  0.77789847     0.08600
H2040       H  0.51114715  0.14208649  0.77763177     0.05400
C2041       C  0.52407273  0.31316979  0.74051252    -0.20400
C2042       C  0.99856192  0.28483976  0.73499799    -0.07000
C2043       C  0.97161007  0.29411744  0.71751607     0.13900
C2044       C  0.97503943  0.32641962  0.70426049    -0.20500
C2045       C  0.00339827  0.35142280  0.70805654    -0.07000
C2046       C  0.52706761  0.34548319  0.72732110     0.13900
C2047       C  0.55497920  0.37367442  0.73476228    -0.23800
H2048       H  0.54220273  0.31109981  0.75549806     0.15200
H2049       H  0.95512588  0.33198793  0.69050907     0.15200
C2050       C  0.93839723  0.27159788  0.71167988    -0.23800
H2051       H  0.56860345  0.36634430  0.75171500     0.05400
H2052       H  0.54178705  0.40035279  0.73733797     0.08600
H2053       H  0.57649833  0.37610609  0.72123432     0.08600
H2054       H  0.93692209  0.24625592  0.72155207     0.08600
H2055       H  0.93823760  0.26453277  0.69252185     0.08600
H2056       H  0.91363754  0.28732853  0.71568360     0.05400
C2057       C  0.59968083  0.24292933  0.77207657    -0.20400
C2058       C  0.59642929  0.24465677  0.79657320    -0.07000
C2059       C  0.56188119  0.24834672  0.80670422     0.13900
C2060       C  0.53097484  0.24943736  0.79192513    -0.20500
C2061       C  0.53337933  0.24833931  0.76676415    -0.07000
C2062       C  0.56941633  0.24585259  0.75701366     0.13900
C2063       C  0.57848708  0.24708849  0.73091186    -0.23800
H2064       H  0.62654478  0.24059160  0.76451191     0.15200
H2065       H  0.50504399  0.24977540  0.80060734     0.15200
C2066       C  0.55754103  0.25039795  0.83324304    -0.23800
H2067       H  0.58901410  0.22031745  0.72527315     0.05400
H2068       H  0.59981994  0.26814578  0.72781889     0.08600
H2069       H  0.55586065  0.25454583  0.71923800     0.08600
H2070       H  0.57244924  0.27454719  0.84022237     0.08600
H2071       H  0.56856656  0.22549385  0.84163840     0.08600
H2072       H  0.52862356  0.25277543  0.83841479     0.05400
C2073       C  0.95588431  0.28172964  0.77816458    -0.20400
C2074       C  0.96156023  0.24937901  0.76497668    -0.07000
C2075       C  0.93179168  0.22312160  0.76521109     0.13900
C2076       C  0.90148560  0.22937632  0.77966884    -0.20500
C2077       C  0.89728285  0.26087813  0.79305202    -0.07000
C2078       C  0.92479483  0.28786387  0.79193889     0.13900
C2079       C  0.92264488  0.32289889  0.80559652    -0.23800
H2080       H  0.97682050  0.30264646  0.77807488     0.15200
H2081       H  0.88007732  0.20889583  0.78051460     0.15200
C2082       C  0.92843621  0.18807929  0.75104561    -0.23800
H2083       H  0.94787724  0.33952476  0.80395216     0.05400
H2084       H  0.91859031  0.31714964  0.82474566     0.08600
H2085       H  0.90019458  0.33952414  0.79842649     0.08600
H2086       H  0.94190855  0.16554412  0.76048678     0.08600
H2087       H  0.93726487  0.19037928  0.73247197     0.08600
H2088       H  0.89964802  0.17907490  0.74924444     0.05400
C2089       C  0.81432553  0.47139665  0.73956620    -0.20400
C2090       C  0.78929665  0.00010663  0.73635455    -0.07000
C2091       C  0.80116353  0.02972890  0.72156607     0.13900
C2092       C  0.83318297  0.02650908  0.70824913    -0.20500
C2093       C  0.85529871  0.99578921  0.70963495    -0.07000
C2094       C  0.84629074  0.46845195  0.72628304     0.13900
C2095       C  0.87029952  0.43625056  0.73086925    -0.23800
H2096       H  0.80939883  0.45053938  0.75259278     0.15200
H2097       H  0.84092771  0.04845148  0.69637722     0.15200
C2098       C  0.78101266  0.06514624  0.71917561    -0.23800
H2099       H  0.86210891  0.42111193  0.74708291     0.05400
H2100       H  0.89889944  0.44532436  0.73344488     0.08600
H2101       H  0.86795764  0.41679152  0.71596436     0.08600
H2102       H  0.78402886  0.08116185  0.73570373     0.08600
H2103       H  0.75199335  0.06061032  0.71492074     0.08600
H2104       H  0.79222282  0.08250259  0.70477228     0.05400
C2105       C  0.68341654  0.99802973  0.74446217    -0.20400
C2106       C  0.71753119  0.99900380  0.73266074    -0.07000
C2107       C  0.71606524  0.99833077  0.70698776     0.13900
C2108       C  0.68233381  0.00188293  0.69535900    -0.20500
C2109       C  0.64969365  0.00238620  0.70768200    -0.07000
C2110       C  0.65007704  0.00003033  0.73244839     0.13900
C2111       C  0.61519210  0.00008873  0.74624414    -0.23800
H2112       H  0.68289722  0.99722374  0.76367483     0.15200
H2113       H  0.68123428  0.00241010  0.67610853     0.15200
C2114       C  0.74683434  0.99060563  0.69011023    -0.23800
H2115       H  0.62016782  0.99826797  0.76567101     0.05400
H2116       H  0.59796140  0.47645565  0.74085507     0.08600
H2117       H  0.60034668  0.02561653  0.74260003     0.08600
H2118       H  0.77044239  0.47721925  0.69789384     0.08600
H2119       H  0.75522789  0.01593599  0.68081759     0.08600
H2120       H  0.73744127  0.97086520  0.67640986     0.05400
C2121       C  0.72618835  0.06291118  0.76247283    -0.20400
C2122       C  0.75282081  0.03544184  0.76551602    -0.07000
C2123       C  0.78133014  0.04359936  0.78240770     0.13900
C2124       C  0.78058314  0.07606690  0.79573248    -0.20500
C2125       C  0.75314648  0.10172226  0.79291774    -0.07000
C2126       C  0.72562893  0.09496226  0.77601270     0.13900
C2127       C  0.69614492  0.12228106  0.77135736    -0.23800
H2128       H  0.70614852  0.06105337  0.74855549     0.15200
H2129       H  0.80202767  0.08164544  0.80851217     0.15200
C2130       C  0.81419136  0.01994022  0.78623466    -0.23800
H2131       H  0.67785067  0.11376528  0.75658762     0.05400
H2132       H  0.70845889  0.14896730  0.76655901     0.08600
H2133       H  0.67911443  0.12533865  0.78737652     0.08600
H2134       H  0.83273227  0.02256834  0.77093415     0.08600
H2135       H  0.80674977  0.99114476  0.78920339     0.08600
H2136       H  0.83025722  0.02855707  0.80203886     0.05400
C2137       C  0.74163286  0.39723646  0.77073603    -0.20400
C2138       C  0.73997973  0.40091791  0.79523503    -0.07000
C2139       C  0.73891879  0.43588107  0.80514734     0.13900
C2140       C  0.74103816  0.46657503  0.79026221    -0.20500
C2141       C  0.74643456  0.46389315  0.76536074    -0.07000
C2142       C  0.74377321  0.42763547  0.75556346     0.13900
C2143       C  0.74248278  0.41920407  0.72933056    -0.23800
H2144       H  0.74115387  0.36999038  0.76340825     0.15200
H2145       H  0.73868067  0.49272274  0.79866882     0.15200
C2146       C  0.73586565  0.44081579  0.83159447    -0.23800
H2147       H  0.74100711  0.38950343  0.72586966     0.05400
H2148       H  0.76716047  0.42880369  0.72029429     0.08600
H2149       H  0.71769542  0.43037906  0.72111318     0.08600
H2150       H  0.75942745  0.42814051  0.84062474     0.08600
H2151       H  0.71043275  0.42772866  0.83799651     0.08600
H2152       H  0.73543240  0.46997790  0.83663827     0.05400
C2153       C  0.59204447  0.22246548  0.02884583    -0.20400
C2154       C  0.56747123  0.25113014  0.02753302    -0.07000
C2155       C  0.57340200  0.28219771  0.04187605     0.13900
C2156       C  0.60041975  0.28149286  0.05948289    -0.20500
C2157       C  0.62285663  0.25120926  0.06238608    -0.07000
C2158       C  0.62067007  0.22285979  0.04536761     0.13900
C2159       C  0.64826280  0.19322398  0.04336383    -0.23800
H2160       H  0.58850270  0.19920365  0.01722545     0.15200
H2161       H  0.60310093  0.30438738  0.07149117     0.15200
C2162       C  0.55149241  0.31630619  0.03918585    -0.23800
H2163       H  0.65843183  0.19227304  0.02486314     0.05400
H2164       H  0.63516564  0.16669967  0.04752793     0.08600
H2165       H  0.67239148  0.19768862  0.05482135     0.08600
H2166       H  0.53535142  0.32078601  0.05546733     0.08600
H2167       H  0.53295026  0.31532027  0.02363165     0.08600
H2168       H  0.57011630  0.33990781  0.03653380     0.05400
C2169       C  0.89467948  0.27831747  0.05438416    -0.20400
C2170       C  0.87956939  0.24550724  0.06291852    -0.07000
C2171       C  0.88979020  0.21246168  0.05195687     0.13900
C2172       C  0.91652025  0.21316500  0.03425523    -0.20500
C2173       C  0.93308695  0.24582003  0.02709681    -0.07000
C2174       C  0.92142674  0.27886051  0.03685886     0.13900
C2175       C  0.93802306  0.31470467  0.02940122    -0.23800
H2176       H  0.88681927  0.30397466  0.06203753     0.15200
H2177       H  0.92602946  0.18782403  0.02692037     0.15200
C2178       C  0.87338670  0.17627144  0.05885831    -0.23800
H2179       H  0.92543244  0.33797275  0.03865114     0.05400
H2180       H  0.93410309  0.31868946  0.01006824     0.08600
H2181       H  0.96742008  0.31523602  0.03365707     0.08600
H2182       H  0.84343234  0.17712577  0.05671557     0.08600
H2183       H  0.88062904  0.16963144  0.07749032     0.08600
H2184       H  0.88344611  0.15386055  0.04756204     0.05400
C2185       C  0.60271492  0.20682324  0.94482493    -0.20400
C2186       C  0.62055492  0.23970642  0.93921545    -0.07000
C2187       C  0.61351654  0.27093515  0.95315188     0.13900
C2188       C  0.58658983  0.26912405  0.97065240    -0.20500
C2189       C  0.56687745  0.23698405  0.97472867    -0.07000
C2190       C  0.57616210  0.20503614  0.96245726     0.13900
C2191       C  0.55827152  0.16873894  0.96737530    -0.23800
H2192       H  0.60842650  0.18240038  0.93491746     0.15200
H2193       H  0.57957239  0.29339755  0.98040773     0.15200
C2194       C  0.63383242  0.30635733  0.94978156    -0.23800
H2195       H  0.57934625  0.14872773  0.97236087     0.05400
H2196       H  0.54384773  0.15900732  0.95119248     0.08600
H2197       H  0.53854790  0.16977321  0.98212806     0.08600
H2198       H  0.62693915  0.31833593  0.93228178     0.08600
H2199       H  0.66351734  0.30175308  0.95111190     0.08600
H2200       H  0.62664369  0.32663864  0.96350309     0.05400
C2201       C  0.92862291  0.27871788  0.96399625    -0.20400
C2202       C  0.93421313  0.24399762  0.97335476    -0.07000
C2203       C  0.91318284  0.21447711  0.96488919     0.13900
C2204       C  0.88715135  0.22053737  0.94707847    -0.20500
C2205       C  0.88234200  0.25516921  0.93683600    -0.07000
C2206       C  0.90329340  0.28485854  0.94580669     0.13900
C2207       C  0.90109552  0.32282013  0.93598187    -0.23800
H2208       H  0.94585421  0.30092141  0.97010822     0.15200
H2209       H  0.87142782  0.19753208  0.94056611     0.15200
C2210       C  0.91848924  0.17611379  0.97349397    -0.23800
H2211       H  0.92161238  0.34139111  0.94414970     0.05400
H2212       H  0.87426787  0.33422865  0.94009410     0.08600
H2213       H  0.90614093  0.32269866  0.91658890     0.08600
H2214       H  0.89294291  0.16582080  0.98157659     0.08600
H2215       H  0.94054788  0.17392831  0.98685644     0.08600
H2216       H  0.92549330  0.15845705  0.95827466     0.05400
C2217       C  0.81715438  0.00451014  0.25518976    -0.20400
C2218       C  0.78316044  0.99757557  0.26628284    -0.07000
C2219       C  0.78467943  0.98828319  0.29116931     0.13900
C2220       C  0.81785384  0.99203235  0.30365895    -0.20500
C2221       C  0.85018781  0.00164774  0.29232237    -0.07000
C2222       C  0.84997759  0.00738439  0.26778908     0.13900
C2223       C  0.88458322  0.01634248  0.25480355    -0.23800
H2224       H  0.81800557  0.00912117  0.23635432     0.15200
H2225       H  0.81883778  0.98598751  0.32248094     0.15200
C2226       C  0.75454668  0.47105977  0.30564429    -0.23800
H2227       H  0.87983051  0.01995151  0.23546429     0.05400
H2228       H  0.90426775  0.49401100  0.25730284     0.08600
H2229       H  0.89657617  0.04198262  0.26187860     0.08600
H2230       H  0.73268151  0.45805060  0.29529460     0.08600
H2231       H  0.74323386  0.99140007  0.31800745     0.08600
H2232       H  0.76564003  0.44840537  0.31644783     0.05400
C2233       C  0.70692270  0.02574896  0.27991597    -0.20400
C2234       C  0.71173629  0.99717857  0.26334990    -0.07000
C2235       C  0.68211191  0.47115099  0.26128013     0.13900
C2236       C  0.65299059  0.47276449  0.27727463    -0.20500
C2237       C  0.64916814  0.00112331  0.29347869    -0.07000
C2238       C  0.67635173  0.02837005  0.29453815     0.13900
C2239       C  0.67436401  0.05969417  0.31167329    -0.23800
H2240       H  0.72812739  0.04611449  0.28195165     0.15200
H2241       H  0.63155193  0.45237819  0.27611123     0.15200
C2242       C  0.67621946  0.44274369  0.24216899    -0.23800
H2243       H  0.69883752  0.07756370  0.31080222     0.05400
H2244       H  0.67219339  0.54929181  0.33008001     0.08600
H2245       H  0.65053423  0.07670811  0.30735219     0.08600
H2246       H  0.67965572  0.41516290  0.24983526     0.08600
H2247       H  0.69290465  0.94578571  0.22630467     0.08600
H2248       H  0.64801443  0.44453932  0.23517432     0.05400
C2249       C  0.76841767  0.06646479  0.24346259    -0.20400
C2250       C  0.74624524  0.03658613  0.23594426    -0.07000
C2251       C  0.72012193  0.04449984  0.21764431     0.13900
C2252       C  0.72187769  0.07792381  0.20544227    -0.20500
C2253       C  0.74723660  0.10500032  0.21137233    -0.07000
C2254       C  0.76970686  0.09982705  0.23131515     0.13900
C2255       C  0.79392023  0.12999701  0.24065823    -0.23800
H2256       H  0.78465919  0.06461042  0.25939802     0.15200
H2257       H  0.70338334  0.08286524  0.19078869     0.15200
C2258       C  0.68975038  0.01899056  0.21037339    -0.23800
H2259       H  0.80761413  0.12227346  0.25751077     0.05400
H2260       H  0.77752221  0.15453441  0.24412770     0.08600
H2261       H  0.81546593  0.13668434  0.22770706     0.08600
H2262       H  0.67098687  0.01455225  0.22532310     0.08600
H2263       H  0.70040573  0.99326935  0.20351754     0.08600
H2264       H  0.67290941  0.03038674  0.19580240     0.05400
C2265       C  0.76382580  0.43180749  0.19564221    -0.20400
C2266       C  0.75805078  0.39856876  0.20707151    -0.07000
C2267       C  0.75504885  0.39772949  0.23182525     0.13900
C2268       C  0.75503183  0.43056278  0.24442017    -0.20500
C2269       C  0.75557388  0.46502952  0.23298300    -0.07000
C2270       C  0.76477412  0.46492339  0.20816286     0.13900
C2271       C  0.77810614  0.49702758  0.19368433    -0.23800
H2272       H  0.76845282  0.43181683  0.17662568     0.15200
H2273       H  0.75166951  0.42911360  0.26339022     0.15200
C2274       C  0.75074001  0.36219786  0.24490022    -0.23800
H2275       H  0.80292821  0.48917073  0.18393199     0.05400
H2276       H  0.78662459  0.52104814  0.20387815     0.08600
H2277       H  0.75720342  0.50472129  0.18037616     0.08600
H2278       H  0.77456071  0.34478912  0.24149342     0.08600
H2279       H  0.72570281  0.34792113  0.23870890     0.08600
H2280       H  0.74860249  0.36629048  0.26436383     0.05400
C2281       C  0.74859561  0.99872788  0.24932490    -0.02600
C2282       C  0.96689893  0.73927656  0.98825963     0.02200
C2283       C  0.96677889  0.74409693  0.01304512     0.02200
C2284       C  0.50039500  0.74764074  0.02554381    -0.18400
C2285       C  0.53355938  0.74617526  0.01349600     0.02200
C2286       C  0.53334915  0.73889902  0.98892690     0.02200
C2287       C  0.50010300  0.73615589  0.97677130    -0.18400
H2288       H  0.49998972  0.73263505  0.95768253     0.04200
H2289       H  0.50042538  0.75152961  0.04460660     0.04200
C2290       C  0.75193268  0.49955599  0.74964066    -0.02600
C2291       C  0.49833429  0.74818034  0.75043461    -0.02600
C2292       C  0.74191280  0.96728848  0.98866733     0.02200
C2293       C  0.74515112  0.96680559  0.01354487     0.02200
C2294       C  0.74456891  0.99974960  0.02586458    -0.18400
C2295       C  0.74403264  0.53314554  0.01385756     0.02200
C2296       C  0.74356919  0.53361942  0.98881338     0.02200
C2297       C  0.74181512  0.00056963  0.97659324    -0.18400
H2298       H  0.74118747  0.00071566  0.95736089     0.04200
H2299       H  0.74539696  0.99944381  0.04509821     0.04200
C2300       C  0.85745776  0.75761187  0.91589685     0.42400
N2301       N  0.82569229  0.74033093  0.88560754     0.01300
C2302       C  0.70870069  0.84888035  0.82037079    -0.06600
H2303       H  0.68261625  0.84039187  0.91083807     0.06700
C2304       C  0.66006142  0.70945168  0.90570879    -0.07000
Co2305     Co  0.79102940  0.80275821  0.86089481     0.74200
N2306       N  0.72447544  0.82186741  0.88760424    -0.26200
Co2307     Co  0.69736118  0.79251971  0.86164131     0.74100
C2308       C  0.64519348  0.74048792  0.91841950     0.42500
N2309       N  0.73898770  0.67339827  0.88564298     0.00900
N2310       N  0.67370383  0.75952759  0.88756165     0.01000
N2311       N  0.76994190  0.85445184  0.82070850    -0.47000
H2312       H  0.84188243  0.81769864  0.90903287     0.06700
N2313       N  0.76000714  0.82604422  0.88751016     0.01300
N2314       N  0.67040246  0.76163492  0.83600001     0.01000
C2315       C  0.62990386  0.74413170  0.81101656     0.42600
N2316       N  0.77449430  0.67776405  0.88531296    -0.25600
C2317       C  0.84577461  0.79279586  0.81941890    -0.06500
N2318       N  0.84669058  0.72835929  0.90301139    -0.46700
N2319       N  0.64423943  0.77358490  0.82189929    -0.46900
C2320       C  0.86492580  0.76197611  0.80893535     0.42400
N2321       N  0.75870196  0.82906159  0.83575612     0.01200
N2322       N  0.77266344  0.67751777  0.83370798    -0.25600
N2323       N  0.82191778  0.77584909  0.88613773    -0.26100
N2324       N  0.73689249  0.67412980  0.83379892     0.00900
H2325       H  0.81436204  0.64898200  0.81484046     0.06800
H2326       H  0.64325523  0.68380379  0.81698335     0.06800
N2327       N  0.72294123  0.82544962  0.83611026    -0.26200
N2328       N  0.67731345  0.72394950  0.88703116    -0.25800
N2329       N  0.82519965  0.74209424  0.83396928     0.01300
C2330       C  0.74266884  0.85472134  0.91850550     0.42600
C2331       C  0.78891974  0.65981806  0.90370422    -0.07000
N2332       N  0.67348442  0.72585303  0.83552191    -0.25800
H2333       H  0.65843346  0.68078110  0.90984187     0.06800
N2334       N  0.77202680  0.84580727  0.90560020    -0.47000
H2335       H  0.81754190  0.65971499  0.90773755     0.06800
C2336       C  0.75403131  0.63538329  0.80765386     0.42500
C2337       C  0.84078787  0.78929023  0.90457125    -0.06500
Co2338     Co  0.80002019  0.70902500  0.85943787     0.73800
N2339       N  0.72800538  0.65286250  0.90361031    -0.46700
C2340       C  0.74000113  0.86772555  0.81005724     0.42700
N2341       N  0.85043692  0.73165897  0.81892320    -0.46700
Co2342     Co  0.70626118  0.69876758  0.86029955     0.73900
C2343       C  0.64900676  0.71234866  0.82000975    -0.07000
C2344       C  0.71104868  0.83909723  0.90639047    -0.06600
N2345       N  0.82218071  0.77780516  0.83478396    -0.26100
N2346       N  0.65446976  0.77049653  0.90591343    -0.46900
H2347       H  0.68006305  0.85382551  0.81768787     0.06800
C2348       C  0.78594332  0.65411619  0.81773744    -0.07000
Cl2349     Cl  0.74866748  0.75075458  0.86022187    -0.50000
C2350       C  0.75796823  0.64300140  0.91597262     0.42500
H2351       H  0.85012418  0.82162682  0.81731993     0.06700
N2352       N  0.72481255  0.64902511  0.81876630    -0.46700
C2353       C  0.75532899  0.86513730  0.19276487     0.42400
N2354       N  0.76897833  0.82715908  0.16552945     0.01300
C2355       C  0.65660169  0.71717369  0.09752707    -0.06600
H2356       H  0.64375810  0.69345252  0.18800595     0.06700
C2357       C  0.78154715  0.65338195  0.18511131    -0.07000
Co2358     Co  0.70312644  0.79659823  0.14101171     0.74200
N2359       N  0.67526883  0.73248728  0.16794457    -0.26200
Co2360     Co  0.70323287  0.70241877  0.14274007     0.74100
C2361       C  0.74911541  0.63829323  0.19648757     0.42500
N2362       N  0.82630376  0.73405954  0.16670376     0.00900
N2363       N  0.73319976  0.67554471  0.16893770     0.01000
N2364       N  0.65764374  0.77855243  0.09659143    -0.47000
H2365       H  0.69407308  0.85628568  0.18646949     0.06700
N2366       N  0.67565600  0.76837343  0.16744881     0.01300
N2367       N  0.73184550  0.67396580  0.11716400     0.01000
C2368       C  0.74613410  0.64034954  0.08767065     0.42600
N2369       N  0.82644859  0.76993111  0.16598760    -0.25600
C2370       C  0.71768724  0.84137691  0.09570683    -0.06500
N2371       N  0.78331506  0.85065494  0.18084493    -0.46700
N2372       N  0.71789856  0.65367032  0.09994713    -0.46900
C2373       C  0.74948545  0.85190758  0.08195425     0.42400
N2374       N  0.67513829  0.76592680  0.11544960     0.01200
N2375       N  0.82356135  0.76815201  0.11431877    -0.25600
N2376       N  0.73312836  0.82641516  0.16603544    -0.26100
N2377       N  0.82412336  0.73237704  0.11475589     0.00900
H2378       H  0.84604897  0.80832400  0.09088581     0.06800
H2379       H  0.80737706  0.64953431  0.09493239     0.06800
N2380       N  0.67520292  0.73011151  0.11625911    -0.26200
N2381       N  0.76904052  0.67602363  0.16836963    -0.25800
N2382       N  0.76664231  0.82375277  0.11346572     0.01300
C2383       C  0.63748615  0.75477997  0.19460714     0.42600
C2384       C  0.84976209  0.78235769  0.18253380    -0.07000
N2385       N  0.76758640  0.67476314  0.11692890    -0.25800
H2386       H  0.80970020  0.64616167  0.18748835     0.06800
N2387       N  0.65285450  0.78274577  0.18275000    -0.47000
H2388       H  0.85735281  0.81058214  0.18488995     0.06800
C2389       C  0.85465719  0.74722408  0.08366475     0.42500
C2390       C  0.72199906  0.84957517  0.18276425    -0.06500
Co2391     Co  0.79703397  0.79791236  0.13990716     0.73800
N2392       N  0.84883013  0.72089524  0.18288022    -0.46700
C2393       C  0.64590729  0.74935017  0.08405783     0.42700
N2394       N  0.77896213  0.84089642  0.09438331    -0.46700
Co2395     Co  0.79736173  0.70378953  0.14176422     0.73900
C2396       C  0.77919753  0.65426800  0.09904743    -0.07000
C2397       C  0.65171871  0.72136671  0.18454260    -0.06600
N2398       N  0.73094248  0.82343366  0.11442364    -0.26100
N2399       N  0.72021983  0.65274002  0.18510737    -0.46900
H2400       H  0.65171338  0.68871649  0.09374419     0.06800
C2401       C  0.84207548  0.78005302  0.09548380    -0.07000
Cl2402     Cl  0.75019993  0.75018210  0.14156333    -0.50000
C2403       C  0.86414230  0.74970329  0.19402941     0.42500
H2404       H  0.68924765  0.84610502  0.09226231     0.06700
N2405       N  0.84264846  0.71872718  0.09681261    -0.46700
C2406       C  0.00534425  0.88437908  0.69272570     0.42400
N2407       N  0.98851695  0.92287948  0.66619979     0.01300
C2408       C  0.59322589  0.53794987  0.59721596    -0.06600
H2409       H  0.60470341  0.56353071  0.68694794     0.06700
C2410       C  0.96780295  0.59666781  0.68373588    -0.07000
Co2411     Co  0.55140008  0.95593017  0.64033910     0.74200
N2412       N  0.57635848  0.52207597  0.66673752    -0.26200
Co2413     Co  0.54589976  0.54981969  0.64133678     0.74100
C2414       C  0.00035764  0.61326909  0.69419785     0.42500
N2415       N  0.92578469  0.51217151  0.66721115     0.00900
N2416       N  0.51604564  0.57572612  0.66730581     0.01000
N2417       N  0.59754505  0.97683461  0.59659348    -0.47000
H2418       H  0.56545751  0.89514411  0.68436074     0.06700
N2419       N  0.57845856  0.98626443  0.66647668     0.01300
N2420       N  0.51490904  0.57599111  0.61562735     0.01000
C2421       C  0.49824995  0.60713488  0.58530142     0.42600
N2422       N  0.92763037  0.97640947  0.66676023    -0.25600
C2423       C  0.53528013  0.90934958  0.59520967    -0.06500
N2424       N  0.97616248  0.89879383  0.68173786    -0.46700
N2425       N  0.52736349  0.59607214  0.59790888    -0.38900
C2426       C  0.50260078  0.89488199  0.58350686     0.42400
N2427       N  0.57730035  0.98786056  0.61452258     0.01200
N2428       N  0.92807920  0.97714232  0.61514157    -0.25600
N2429       N  0.52401515  0.92474909  0.66595224    -0.26100
N2430       N  0.92595366  0.51281086  0.61512196     0.00900
H2431       H  0.90621419  0.93538062  0.59269629     0.06800
H2432       H  0.93757182  0.59520332  0.59286985     0.06800
N2433       N  0.57463058  0.52347193  0.61521063    -0.26200
N2434       N  0.98021474  0.57370469  0.66728470    -0.25800
N2435       N  0.98762721  0.92472095  0.61438624     0.01300
C2436       C  0.61549698  0.50296358  0.69402396     0.42600
C2437       C  0.90471463  0.96273156  0.68294163    -0.07000
N2438       N  0.97913922  0.57351975  0.61569602    -0.25800
H2439       H  0.93957229  0.60285917  0.68679533     0.06800
N2440       N  0.60221118  0.97380795  0.68215181    -0.47000
H2441       H  0.89877520  0.93403964  0.68493923     0.06800
C2442       C  0.89592706  0.49588092  0.58405216     0.42500
C2443       C  0.53709587  0.90137998  0.68211279    -0.06500
Co2444     Co  0.95749702  0.94970498  0.64078898     0.73800
N2445       N  0.90213351  0.52395684  0.68294943    -0.46700
C2446       C  0.60881000  0.50705740  0.58478875     0.42700
N2447       N  0.97430411  0.90547459  0.59646689    -0.46700
Co2448     Co  0.95209950  0.54355945  0.64145734     0.73900
C2449       C  0.96598829  0.59246682  0.59730009    -0.07000
C2450       C  0.59896305  0.53506650  0.68351729    -0.06600
N2451       N  0.52311195  0.92732488  0.61418460    -0.26100
N2452       N  0.52918758  0.59953401  0.68280195    -0.46900
H2453       H  0.59493826  0.56670889  0.59377434     0.06800
C2454       C  0.90955934  0.96390621  0.59649989    -0.07000
Cl2455     Cl  0.00180470  0.49976710  0.64112011    -0.50000
C2456       C  0.88789349  0.49440293  0.69399737     0.42500
H2457       H  0.56347262  0.90651285  0.59045184     0.06700
N2458       N  0.90676221  0.52514970  0.59693285    -0.46700
C2459       C  0.61671453  0.50056017  0.30909912     0.42400
N2460       N  0.57682546  0.51686557  0.33452835     0.01300
C2461       C  0.96449354  0.90690885  0.40247650    -0.06600
H2462       H  0.93765779  0.89527978  0.31342254     0.06700
C2463       C  0.90119289  0.53544332  0.31677782    -0.07000
Co2464     Co  0.54410326  0.95251244  0.35940710     0.74200
N2465       N  0.97824465  0.92639695  0.33268707    -0.26200
Co2466     Co  0.94998950  0.95589348  0.35823443     0.74100
C2467       C  0.88426478  0.50311958  0.30625500     0.42500
N2468       N  0.98528240  0.57878754  0.33422614     0.00900
N2469       N  0.92314794  0.98663549  0.33252512     0.01000
N2470       N  0.52613953  0.90610130  0.40267834    -0.47000
H2471       H  0.60454986  0.93989455  0.31590752     0.06700
N2472       N  0.51449343  0.92526760  0.33329778     0.01300
N2473       N  0.92357136  0.98563932  0.38414036     0.01000
C2474       C  0.89156240  0.50078009  0.41419131     0.42600
N2475       N  0.52148623  0.57742024  0.33470897    -0.25600
C2476       C  0.59015891  0.96598782  0.40438314    -0.06500
N2477       N  0.60189676  0.52963569  0.31983897    -0.46700
N2478       N  0.90362463  0.97225698  0.40157881    -0.46900
C2479       C  0.60431920  0.49745340  0.41722832     0.42400
N2480       N  0.51337119  0.92565329  0.38486883     0.01200
N2481       N  0.52112352  0.57422337  0.38626437    -0.25600
N2482       N  0.57471342  0.98099493  0.33438312    -0.26100
N2483       N  0.98494593  0.57586890  0.38600557     0.00900
H2484       H  0.56251632  0.59510956  0.40961795     0.06800
H2485       H  0.90219633  0.56186658  0.40706095     0.06800
N2486       N  0.97730349  0.92670504  0.38429019    -0.26200
N2487       N  0.92478723  0.52258678  0.33291608    -0.25800
N2488       N  0.57489688  0.51547315  0.38642516     0.01300
C2489       C  0.99845223  0.88588009  0.30694078     0.42600
C2490       C  0.53438076  0.60210741  0.31924409    -0.07000
N2491       N  0.92539060  0.52140526  0.38444461    -0.25800
H2492       H  0.89456387  0.56375431  0.31417057     0.06800
N2493       N  0.52767074  0.90077999  0.31859107    -0.47000
H2494       H  0.56272007  0.60897029  0.31683371     0.06800
C2495       C  0.50199291  0.60524821  0.41754640     0.42500
C2496       C  0.59851287  0.96824219  0.31865681    -0.06500
Co2497     Co  0.54919280  0.54654831  0.36028104     0.73800
N2498       N  0.97277154  0.60402993  0.31960480    -0.46700
C2499       C  0.49728903  0.89382624  0.41509992     0.42700
N2500       N  0.59413533  0.52730472  0.40491118    -0.46700
Co2501     Co  0.95462710  0.55024567  0.35923877     0.73900
C2502       C  0.90593597  0.53355756  0.40270529    -0.07000
C2503       C  0.96586219  0.90242534  0.31653649    -0.06600
N2504       N  0.57236807  0.97976126  0.38580027    -0.26100
N2505       N  0.89863219  0.97398089  0.31725525    -0.46900
H2506       H  0.93611695  0.90227020  0.40597827     0.06800
C2507       C  0.53406684  0.59207844  0.40520534    -0.07000
Cl2508     Cl  0.99927237  0.50133496  0.35887220    -0.50000
C2509       C  0.00187971  0.61996691  0.30931544     0.42500
H2510       H  0.59264183  0.93735489  0.40838399     0.06700
N2511       N  0.97239028  0.59431563  0.40433436    -0.46700
C2512       C  0.50692553  0.78460767  0.51169164     0.02200
C2513       C  0.50867699  0.78271472  0.48665566     0.02200
C2514       C  0.50676513  0.74862934  0.47558529    -0.18400
C2515       C  0.50463895  0.71645160  0.48869970     0.02200
C2516       C  0.50333017  0.71823519  0.51356865     0.02200
C2517       C  0.50507007  0.75213689  0.52474944    -0.18400
H2518       H  0.50397849  0.75328865  0.54398029     0.04200
H2519       H  0.50625207  0.74704456  0.45636672     0.04200
C2520       C  0.78404770  0.99865464  0.48748319     0.02200
C2521       C  0.78445947  0.00019089  0.51245580     0.02200
C2522       C  0.75145998  0.99840217  0.52464136    -0.18400
C2523       C  0.71812243  0.99670756  0.51258418     0.02200
C2524       C  0.71775456  0.99532660  0.48760254     0.02200
C2525       C  0.75076797  0.99641597  0.47540846    -0.18400
H2526       H  0.75055766  0.99552721  0.45617827     0.04200
H2527       H  0.75165765  0.99929831  0.54386453     0.04200
C2528       C  0.50203819  0.75254374  0.24829220    -0.02600
C2529       C  0.49727183  0.85506545  0.26862475    -0.20400
C2530       C  0.00017365  0.85237217  0.29272638    -0.07000
C2531       C  0.00743242  0.81836537  0.30299545     0.13900
C2532       C  0.00852482  0.78730889  0.28854451    -0.20500
C2533       C  0.50259146  0.78857055  0.26391532    -0.07000
C2534       C  0.49904613  0.82451067  0.25378080     0.13900
C2535       C  0.49720822  0.83243709  0.22748054    -0.23800
H2536       H  0.49362489  0.88192259  0.26104840     0.15200
H2537       H  0.01575378  0.76211629  0.29711248     0.15200
C2538       C  0.01373448  0.81477837  0.32934893    -0.23800
H2539       H  0.52264739  0.82460854  0.21869293     0.05400
H2540       H  0.99113029  0.86148373  0.22343191     0.08600
H2541       H  0.47326705  0.81935368  0.21923041     0.08600
H2542       H  0.98970514  0.82476594  0.33906173     0.08600
H2543       H  0.53631617  0.83009507  0.33567941     0.08600
H2544       H  0.01827933  0.78610904  0.33471110     0.05400
C2545       C  0.53020692  0.65833056  0.27842892    -0.20400
C2546       C  0.00124360  0.65303904  0.29394854    -0.07000
C2547       C  0.97393106  0.67951212  0.29493840     0.13900
C2548       C  0.97648873  0.71057352  0.28044948    -0.20500
C2549       C  0.50567422  0.71687990  0.26420037    -0.07000
C2550       C  0.53283830  0.68861922  0.26316125     0.13900
C2551       C  0.56487689  0.68673205  0.24653067    -0.23800
H2552       H  0.55099827  0.63771950  0.27791789     0.15200
H2553       H  0.95526250  0.73054368  0.28184977     0.15200
C2554       C  0.94227046  0.67599122  0.31163145    -0.23800
H2555       H  0.57526987  0.65861232  0.24491685     0.05400
H2556       H  0.58801152  0.70259874  0.25388167     0.08600
H2557       H  0.55806794  0.69406433  0.22813047     0.08600
H2558       H  0.95230851  0.67355265  0.33017997     0.08600
H2559       H  0.92554588  0.65175319  0.30689166     0.08600
H2560       H  0.92429502  0.69999023  0.31074423     0.05400
C2561       C  0.53487409  0.64170507  0.44816195    -0.20400
C2562       C  0.50140668  0.62924824  0.43887059    -0.07000
C2563       C  0.96854246  0.64196897  0.44913541     0.13900
C2564       C  0.97077464  0.66804996  0.46732539    -0.20500
C2565       C  0.50436995  0.68198782  0.47533025    -0.07000
C2566       C  0.53674883  0.66812981  0.46595465     0.13900
C2567       C  0.57380195  0.68189141  0.47347433    -0.23800
H2568       H  0.56009577  0.63224093  0.44091276     0.15200
H2569       H  0.94613950  0.67961663  0.47434548     0.15200
C2570       C  0.93143110  0.62943422  0.44096804    -0.23800
H2571       H  0.58803244  0.69372733  0.45791276     0.05400
H2572       H  0.58992485  0.65891762  0.48053824     0.08600
H2573       H  0.57274985  0.70306095  0.48741300     0.08600
H2574       H  0.92912033  0.59943174  0.44266349     0.08600
H2575       H  0.92671801  0.63779641  0.42228708     0.08600
H2576       H  0.90952292  0.64146847  0.45177634     0.05400
C2577       C  0.53193769  0.84690148  0.43642264    -0.20400
C2578       C  0.50054718  0.86818120  0.43534561    -0.07000
C2579       C  0.97391329  0.86398289  0.45319013     0.13900
C2580       C  0.97869048  0.83746386  0.47081520    -0.20500
C2581       C  0.50906094  0.81499881  0.47103663    -0.07000
C2582       C  0.53646329  0.82020582  0.45385744     0.13900
C2583       C  0.57063699  0.79784533  0.45378671    -0.23800
H2584       H  0.55263387  0.85018552  0.42298825     0.15200
H2585       H  0.95775177  0.83310219  0.48397875     0.15200
C2586       C  0.94041023  0.88673722  0.45417354    -0.23800
H2587       H  0.59018585  0.80772611  0.44024008     0.05400
H2588       H  0.56440894  0.76901578  0.44965464     0.08600
H2589       H  0.58434319  0.79942654  0.47133345     0.08600
H2590       H  0.92112332  0.87703950  0.44038649     0.08600
H2591       H  0.94742026  0.91593759  0.45171147     0.08600
H2592       H  0.92641845  0.88397524  0.47150039     0.05400
C2593       C  0.65105446  0.96524820  0.44044143    -0.20400
C2594       C  0.63005620  0.99657172  0.43756367    -0.07000
C2595       C  0.63459496  0.02558871  0.45385683     0.13900
C2596       C  0.66169603  0.02331731  0.47151337    -0.20500
C2597       C  0.68413453  0.99283945  0.47320408    -0.07000
C2598       C  0.67793993  0.96298406  0.45790667     0.13900
C2599       C  0.69984784  0.92857732  0.45895975    -0.23800
H2600       H  0.64772620  0.44257985  0.42835374     0.15200
H2601       H  0.66667236  0.04619618  0.48325288     0.15200
C2602       C  0.61118420  0.05887317  0.45280245    -0.23800
H2603       H  0.68136985  0.40498760  0.46205719     0.05400
H2604       H  0.72054405  0.92864404  0.47329535     0.08600
H2605       H  0.71401206  0.42467576  0.44183173     0.08600
H2606       H  0.58209657  0.05076448  0.45376288     0.08600
H2607       H  0.61624257  0.57401644  0.43611728     0.08600
H2608       H  0.61708987  0.07767741  0.46777991     0.05400
C2609       C  0.82545643  0.96620677  0.46126244    -0.20400
C2610       C  0.81707604  0.99860332  0.47284033    -0.07000
C2611       C  0.83467612  0.53116983  0.46615712     0.13900
C2612       C  0.85998418  0.53064406  0.44769183    -0.20500
C2613       C  0.86712140  0.99856134  0.43506956    -0.07000
C2614       C  0.84967271  0.96572520  0.44221446     0.13900
C2615       C  0.85451694  0.93033703  0.42930109    -0.23800
H2616       H  0.81097395  0.94150806  0.46620163     0.15200
H2617       H  0.87320628  0.55586100  0.44267980     0.15200
C2618       C  0.82551410  0.56678919  0.47766078    -0.23800
H2619       H  0.83863402  0.90774760  0.43744396     0.05400
H2620       H  0.88338452  0.92269974  0.42989379     0.08600
H2621       H  0.84531491  0.93310965  0.41059662     0.08600
H2622       H  0.83266539  0.56575903  0.49676093     0.08600
H2623       H  0.79606264  0.57216654  0.47560792     0.08600
H2624       H  0.84075164  0.58990286  0.46962238     0.05400
C2625       C  0.63694971  0.97410131  0.55129176    -0.20400
C2626       C  0.63374969  0.00681527  0.56402132    -0.07000
C2627       C  0.65625370  0.53687415  0.55750244     0.13900
C2628       C  0.68068790  0.53313411  0.53878406    -0.20500
C2629       C  0.68511319  0.00001943  0.52713911    -0.07000
C2630       C  0.66290151  0.97002466  0.53337315     0.13900
C2631       C  0.66717058  0.93294887  0.52255890    -0.23800
H2632       H  0.62016249  0.95080472  0.55607142     0.15200
H2633       H  0.69846622  0.55576553  0.53411040     0.15200
C2634       C  0.65730480  0.57235626  0.57077495    -0.23800
H2635       H  0.67303101  0.91284295  0.53675377     0.05400
H2636       H  0.68962474  0.93193968  0.50970140     0.08600
H2637       H  0.64166376  0.42480872  0.51331588     0.08600
H2638       H  0.66141933  0.06744623  0.59004077     0.08600
H2639       H  0.63212100  0.58745838  0.56725136     0.08600
H2640       H  0.67997086  0.59032680  0.56486784     0.05400
C2641       C  0.84918680  0.52867054  0.56126898    -0.20400
C2642       C  0.87119667  0.99793798  0.56313148    -0.07000
C2643       C  0.86859549  0.97085476  0.54520103     0.13900
C2644       C  0.84197238  0.97395352  0.52733852    -0.20500
C2645       C  0.81808563  0.00326410  0.52688501    -0.07000
C2646       C  0.82281567  0.53173226  0.54346569     0.13900
C2647       C  0.79986582  0.56543402  0.54325641    -0.23800
H2648       H  0.85156411  0.55017108  0.57434689     0.15200
H2649       H  0.83821583  0.95217166  0.51459477     0.15200
C2650       C  0.89276925  0.93819015  0.54468957    -0.23800
H2651       H  0.81777704  0.58987943  0.54226649     0.05400
H2652       H  0.78375365  0.06665135  0.55982731     0.08600
H2653       H  0.78096776  0.56655243  0.52789454     0.08600
H2654       H  0.88371392  0.91845043  0.55831341     0.08600
H2655       H  0.92156034  0.94642246  0.54755557     0.08600
H2656       H  0.89108245  0.92394937  0.52733935     0.05400
C2657       C  0.96746191  0.65137744  0.55877829    -0.20400
C2658       C  0.49941258  0.63249364  0.56479047    -0.07000
C2659       C  0.53147187  0.63930657  0.55157662     0.13900
C2660       C  0.53125117  0.66584670  0.53369723    -0.20500
C2661       C  0.50001859  0.68570607  0.52871608    -0.07000
C2662       C  0.96751152  0.67799039  0.54097349     0.13900
C2663       C  0.93315610  0.69841567  0.53563457    -0.23800
H2664       H  0.94277401  0.64652246  0.56862538     0.15200
H2665       H  0.55606236  0.67242203  0.52437785     0.15200
C2666       C  0.56624346  0.61933645  0.55616885    -0.23800
H2667       H  0.91006508  0.68838614  0.54650141     0.05400
H2668       H  0.92573761  0.69495110  0.51664605     0.08600
H2669       H  0.93709109  0.72777309  0.53947022     0.08600
H2670       H  0.56133073  0.58956638  0.55484089     0.08600
H2671       H  0.57704515  0.62645598  0.57400245     0.08600
H2672       H  0.58754113  0.62673754  0.54309380     0.05400
C2673       C  0.97189333  0.82263598  0.53880632    -0.20400
C2674       C  0.50362067  0.81890625  0.52537551    -0.07000
C2675       C  0.53328021  0.84279729  0.52943948     0.13900
C2676       C  0.53112010  0.86876536  0.54760980    -0.20500
C2677       C  0.50061968  0.87066566  0.56241671    -0.07000
C2678       C  0.97031695  0.84748000  0.55759750     0.13900
C2679       C  0.93712565  0.84668460  0.57311867    -0.23800
H2680       H  0.94938415  0.80390156  0.53585541     0.15200
H2681       H  0.55407215  0.88678120  0.55077200     0.15200
C2682       C  0.56795611  0.83995768  0.51565777    -0.23800
H2683       H  0.91681361  0.82607868  0.56709356     0.05400
H2684       H  0.92374419  0.87346276  0.57268019     0.08600
H2685       H  0.94495579  0.83971637  0.59161948     0.08600
H2686       H  0.56288794  0.84738399  0.49691993     0.08600
H2687       H  0.57856896  0.81189025  0.51681310     0.08600
H2688       H  0.58929141  0.85884320  0.52252880     0.05400
C2689       C  0.56898011  0.76612942  0.24331310    -0.20400
C2690       C  0.53548727  0.75820221  0.23154376    -0.07000
C2691       C  0.53673185  0.75707010  0.20596845     0.13900
C2692       C  0.57060675  0.75428882  0.19479817    -0.20500
C2693       C  0.60312822  0.75799541  0.20740595    -0.07000
C2694       C  0.60239193  0.76618703  0.23160753     0.13900
C2695       C  0.63704018  0.77271423  0.24538693    -0.23800
H2696       H  0.56953209  0.76936109  0.26241217     0.15200
H2697       H  0.57174324  0.75088209  0.17567366     0.15200
C2698       C  0.50542716  0.76203570  0.18883233    -0.23800
H2699       H  0.63173476  0.77838430  0.26439650     0.05400
H2700       H  0.65190674  0.79642332  0.23781581     0.08600
H2701       H  0.65441464  0.74831537  0.24434786     0.08600
H2702       H  0.48037494  0.77200583  0.19664845     0.08600
H2703       H  0.49993262  0.73646586  0.17894698     0.08600
H2704       H  0.51287062  0.78334119  0.17566775     0.05400
C2705       C  0.93371778  0.77041074  0.24220999    -0.20400
C2706       C  0.96287991  0.74733805  0.23596018    -0.07000
C2707       C  0.95345812  0.71790493  0.22032396     0.13900
C2708       C  0.92089419  0.71936763  0.20707131    -0.20500
C2709       C  0.89578455  0.74722303  0.21032413    -0.07000
C2710       C  0.90099645  0.77124670  0.22942981     0.13900
C2711       C  0.87164061  0.79679580  0.23724406    -0.23800
H2712       H  0.93603245  0.78868217  0.25709735     0.15200
H2713       H  0.91525454  0.69880414  0.19375131     0.15200
C2714       C  0.97660672  0.68475150  0.21705771    -0.23800
H2715       H  0.87885558  0.81069607  0.25413982     0.05400
H2716       H  0.84594365  0.78136792  0.24012501     0.08600
H2717       H  0.86731351  0.81829469  0.22382635     0.08600
H2718       H  0.97781329  0.66895066  0.23376845     0.08600
H2719       H  0.00407146  0.69219464  0.21111615     0.08600
H2720       H  0.96508936  0.66606680  0.20342439     0.05400
C2721       C  0.71154715  0.57333027  0.04089647    -0.20400
C2722       C  0.74369182  0.56601411  0.02873844    -0.07000
C2723       C  0.77618587  0.58372898  0.03560611     0.13900
C2724       C  0.77554924  0.60892045  0.05415606    -0.20500
C2725       C  0.74363549  0.61568415  0.06689425    -0.07000
C2726       C  0.71103083  0.59753579  0.06006106     0.13900
C2727       C  0.67608510  0.60145392  0.07353774    -0.23800
H2728       H  0.68710819  0.55808539  0.03626754     0.15200
H2729       H  0.80066465  0.62250115  0.05908677     0.15200
C2730       C  0.81197754  0.57476926  0.02438686    -0.23800
H2731       H  0.65374092  0.58470115  0.06574665     0.05400
H2732       H  0.66728530  0.63007307  0.07316125     0.08600
H2733       H  0.68000099  0.59252478  0.09219543     0.08600
H2734       H  0.81178720  0.58341090  0.00562220     0.08600
H2735       H  0.81698025  0.54511796  0.02556913     0.08600
H2736       H  0.83502890  0.58911698  0.03325285     0.05400
C2737       C  0.78104975  0.89829148  0.05769212    -0.20400
C2738       C  0.75056495  0.87559175  0.06067873    -0.07000
C2739       C  0.72087048  0.87879960  0.04464969     0.13900
C2740       C  0.72011092  0.90824991  0.02882020    -0.20500
C2741       C  0.74927320  0.93290757  0.02746227    -0.07000
C2742       C  0.78092956  0.92667586  0.04110118     0.13900
C2743       C  0.81449965  0.95014417  0.03838045    -0.23800
H2744       H  0.80450397  0.89504387  0.06921000     0.15200
H2745       H  0.69637915  0.91223523  0.01773037     0.15200
C2746       C  0.69015930  0.85140770  0.04310271    -0.23800
H2747       H  0.83725819  0.94025064  0.04958614     0.05400
H2748       H  0.80900240  0.97851631  0.04372699     0.08600
H2749       H  0.82343869  0.94978011  0.01961103     0.08600
H2750       H  0.66474166  0.86362805  0.04971690     0.08600
H2751       H  0.69588934  0.82602730  0.05295257     0.08600
H2752       H  0.68596090  0.84325599  0.02430379     0.05400
C2753       C  0.78183298  0.57204199  0.96325424    -0.20400
C2754       C  0.74819650  0.56686692  0.97423367    -0.07000
C2755       C  0.71854970  0.58809238  0.96698589     0.13900
C2756       C  0.72330092  0.61379596  0.94872912    -0.20500
C2757       C  0.75690432  0.61855638  0.93719491    -0.07000
C2758       C  0.78693797  0.59782313  0.94519031     0.13900
C2759       C  0.82422973  0.60096294  0.93455866    -0.23800
H2760       H  0.80405065  0.55449392  0.96828957     0.15200
H2761       H  0.70015804  0.62951096  0.94294498     0.15200
C2762       C  0.68149398  0.58229169  0.97754669    -0.23800
H2763       H  0.84321518  0.58076516  0.94220132     0.05400
H2764       H  0.83602277  0.62815444  0.93857612     0.08600
H2765       H  0.82287332  0.59594039  0.91516230     0.08600
H2766       H  0.68240569  0.58858488  0.99673953     0.08600
H2767       H  0.67252753  0.55362848  0.97499949     0.08600
H2768       H  0.66094624  0.60016361  0.96917414     0.05400
C2769       C  0.77251961  0.91545112  0.97002345    -0.20400
C2770       C  0.74032147  0.93400923  0.97425933    -0.07000
C2771       C  0.70834944  0.92421880  0.96187669     0.13900
C2772       C  0.70975481  0.89706468  0.94460484    -0.20500
C2773       C  0.74255918  0.88004820  0.93895328    -0.07000
C2774       C  0.77418905  0.88864998  0.95240661     0.13900
C2775       C  0.80987945  0.87029717  0.94828587    -0.23800
H2776       H  0.79690586  0.92339507  0.97968071     0.15200
H2777       H  0.68525275  0.89056668  0.93473754     0.15200
C2778       C  0.67294001  0.94316892  0.96635844    -0.23800
H2779       H  0.83079196  0.87893312  0.96147533     0.05400
H2780       H  0.82037604  0.87753658  0.93046994     0.08600
H2781       H  0.80632064  0.84036977  0.94982892     0.08600
H2782       H  0.67545320  0.97244753  0.96183710     0.08600
H2783       H  0.66542798  0.94040795  0.98530369     0.08600
H2784       H  0.65043218  0.93147456  0.95548742     0.05400
C2785       C  0.00096242  0.71309813  0.71026127    -0.20400
C2786       C  0.00183651  0.71228698  0.73543606    -0.07000
C2787       C  0.50786491  0.67718793  0.74633066     0.13900
C2788       C  0.50697831  0.64563946  0.73226497    -0.20500
C2789       C  0.00205987  0.64736489  0.70776194    -0.07000
C2790       C  0.00066753  0.68138177  0.69649607     0.13900
C2791       C  0.99908905  0.68425824  0.66981333    -0.23800
H2792       H  0.00095038  0.73846687  0.70077214     0.15200
H2793       H  0.50983390  0.61913352  0.74045182     0.15200
C2794       C  0.51359133  0.67125091  0.77268319    -0.23800
H2795       H  0.99831902  0.71297815  0.66373111     0.05400
H2796       H  0.97433676  0.67017870  0.66299850     0.08600
H2797       H  0.02344045  0.67150160  0.66204103     0.08600
H2798       H  0.49315731  0.68579014  0.78326835     0.08600
H2799       H  0.54143637  0.67980007  0.77789984     0.08600
H2800       H  0.51114133  0.64209051  0.77763051     0.05400
C2801       C  0.52406582  0.81317510  0.74050980    -0.20400
C2802       C  0.99857276  0.78484382  0.73498751    -0.07000
C2803       C  0.97162190  0.79412265  0.71750522     0.13900
C2804       C  0.97504923  0.82642755  0.70425252    -0.20500
C2805       C  0.00340285  0.85143443  0.70805324    -0.07000
C2806       C  0.52706169  0.84548667  0.72731686     0.13900
C2807       C  0.55497099  0.87367988  0.73475845    -0.23800
H2808       H  0.54219100  0.81110891  0.75549818     0.15200
H2809       H  0.95513662  0.83199631  0.69050055     0.15200
C2810       C  0.93841076  0.77160253  0.71166629    -0.23800
H2811       H  0.56859326  0.86635213  0.75171232     0.05400
H2812       H  0.54177752  0.90035804  0.73733193     0.08600
H2813       H  0.57649194  0.87611061  0.72123164     0.08600
H2814       H  0.93693341  0.74626137  0.72153941     0.08600
H2815       H  0.93825536  0.76453687  0.69250838     0.08600
H2816       H  0.91365001  0.78733298  0.71566747     0.05400
C2817       C  0.59967947  0.74294451  0.77207620    -0.20400
C2818       C  0.59642500  0.74466628  0.79657264    -0.07000
C2819       C  0.56187566  0.74835340  0.80670240     0.13900
C2820       C  0.53097047  0.74944215  0.79192200    -0.20500
C2821       C  0.53337785  0.74834556  0.76676107    -0.07000
C2822       C  0.56941644  0.74586588  0.75701211     0.13900
C2823       C  0.57849119  0.74710905  0.73091107    -0.23800
H2824       H  0.62654487  0.74061157  0.76451258     0.15200
H2825       H  0.50503862  0.74977757  0.80060289     0.15200
C2826       C  0.55753316  0.75040467  0.83324102    -0.23800
H2827       H  0.58902821  0.72034262  0.72527125     0.05400
H2828       H  0.59981765  0.76817391  0.72782121     0.08600
H2829       H  0.55586455  0.75456024  0.71923585     0.08600
H2830       H  0.57243891  0.77455516  0.84022053     0.08600
H2831       H  0.56856013  0.72550164  0.84163705     0.08600
H2832       H  0.52861497  0.75277988  0.83841168     0.05400
C2833       C  0.95589189  0.78173331  0.77815347    -0.20400
C2834       C  0.96156838  0.74938307  0.76496506    -0.07000
C2835       C  0.93180173  0.72312400  0.76520202     0.13900
C2836       C  0.90150173  0.72937214  0.77966665    -0.20500
C2837       C  0.89729715  0.76087416  0.79304953    -0.07000
C2838       C  0.92480417  0.78786508  0.79193051     0.13900
C2839       C  0.92265015  0.82290389  0.80558365    -0.23800
H2840       H  0.97682636  0.80265228  0.77806187     0.15200
H2841       H  0.88009734  0.70888750  0.78051542     0.15200
C2842       C  0.92844089  0.68808682  0.75103189    -0.23800
H2843       H  0.94787826  0.83953517  0.80393380     0.05400
H2844       H  0.91860236  0.81716004  0.82473406     0.08600
H2845       H  0.90019409  0.83952162  0.79841386     0.08600
H2846       H  0.94190248  0.66554465  0.76047289     0.08600
H2847       H  0.93727668  0.69038735  0.73245996     0.08600
H2848       H  0.89964966  0.67909489  0.74922450     0.05400
C2849       C  0.81431694  0.97141081  0.73956933    -0.20400
C2850       C  0.78930609  0.50009321  0.73635035    -0.07000
C2851       C  0.80117533  0.52971477  0.72156230     0.13900
C2852       C  0.83319665  0.52649462  0.70824738    -0.20500
C2853       C  0.85531079  0.49577356  0.70963320    -0.07000
C2854       C  0.84628235  0.96846880  0.72628632     0.13900
C2855       C  0.87029707  0.93627291  0.73087539    -0.23800
H2856       H  0.80939176  0.95055302  0.75259587     0.15200
H2857       H  0.84094370  0.54843762  0.69637669     0.15200
C2858       C  0.78102548  0.56513249  0.71917075    -0.23800
H2859       H  0.86210967  0.92113674  0.74709074     0.05400
H2860       H  0.89889537  0.94535273  0.73344994     0.08600
H2861       H  0.86795888  0.91681017  0.71597245     0.08600
H2862       H  0.78404004  0.58114814  0.73569894     0.08600
H2863       H  0.75200646  0.56059716  0.71491474     0.08600
H2864       H  0.79223733  0.58248834  0.70476775     0.05400
C2865       C  0.68342464  0.49800796  0.74445545    -0.20400
C2866       C  0.71753973  0.49898985  0.73265458    -0.07000
C2867       C  0.71607475  0.49832290  0.70698178     0.13900
C2868       C  0.68234423  0.50188273  0.69535298    -0.20500
C2869       C  0.64970339  0.50237760  0.70767581    -0.07000
C2870       C  0.65008542  0.50000341  0.73244138     0.13900
C2871       C  0.61519902  0.50003469  0.74623610    -0.23800
H2872       H  0.68290388  0.49719601  0.76366783     0.15200
H2873       H  0.68124578  0.50241884  0.67610276     0.15200
C2874       C  0.74684398  0.49059627  0.69010486    -0.23800
H2875       H  0.62017388  0.49819849  0.76566250     0.05400
H2876       H  0.59794359  0.97651270  0.74087232     0.08600
H2877       H  0.60034247  0.52555871  0.74260102     0.08600
H2878       H  0.77043598  0.97723314  0.69789843     0.08600
H2879       H  0.75524182  0.51592679  0.68081393     0.08600
H2880       H  0.73744905  0.47085909  0.67640293     0.05400
C2881       C  0.72619151  0.56289825  0.76246489    -0.20400
C2882       C  0.75282538  0.53543071  0.76550910    -0.07000
C2883       C  0.78133104  0.54358788  0.78240321     0.13900
C2884       C  0.78057802  0.57605222  0.79573076    -0.20500
C2885       C  0.75314181  0.60170754  0.79291391    -0.07000
C2886       C  0.72562912  0.59494905  0.77600512     0.13900
C2887       C  0.69614876  0.62227002  0.77134576    -0.23800
H2888       H  0.70615262  0.56103852  0.74854674     0.15200
H2889       H  0.80201878  0.58162936  0.80851360     0.15200
C2890       C  0.81419348  0.51993067  0.78623059    -0.23800
H2891       H  0.67785837  0.61375524  0.75657363     0.05400
H2892       H  0.70846654  0.64895493  0.76654852     0.08600
H2893       H  0.67911409  0.62532981  0.78736278     0.08600
H2894       H  0.83273482  0.52256015  0.77093029     0.08600
H2895       H  0.80675287  0.49113472  0.78919884     0.08600
H2896       H  0.83025845  0.52854815  0.80203494     0.05400
C2897       C  0.74162893  0.89724328  0.77073583    -0.20400
C2898       C  0.73998705  0.90091964  0.79523554    -0.07000
C2899       C  0.73893257  0.93588149  0.80515063     0.13900
C2900       C  0.74104201  0.96657874  0.79026722    -0.20500
C2901       C  0.74642816  0.96390191  0.76536464    -0.07000
C2902       C  0.74376491  0.92764530  0.75556527     0.13900
C2903       C  0.74246995  0.91921755  0.72933210    -0.23800
H2904       H  0.74114607  0.86999850  0.76340587     0.15200
H2905       H  0.73868897  0.99272531  0.79867621     0.15200
C2906       C  0.73589832  0.94081111  0.83159911    -0.23800
H2907       H  0.74099468  0.88951750  0.72586924     0.05400
H2908       H  0.76714660  0.92881902  0.72029530     0.08600
H2909       H  0.71768069  0.93039254  0.72111739     0.08600
H2910       H  0.75946708  0.92813483  0.84062090     0.08600
H2911       H  0.71047065  0.92772197  0.83800810     0.08600
H2912       H  0.73546823  0.96997229  0.83664543     0.05400
C2913       C  0.59204048  0.72246731  0.02883987    -0.20400
C2914       C  0.56747409  0.75113793  0.02752578    -0.07000
C2915       C  0.57341358  0.78220669  0.04186637     0.13900
C2916       C  0.60043329  0.78149875  0.05947157    -0.20500
C2917       C  0.62286286  0.75121011  0.06237617    -0.07000
C2918       C  0.62066790  0.72285770  0.04536024     0.13900
C2919       C  0.64825301  0.69321442  0.04335814    -0.23800
H2920       H  0.58849163  0.69920378  0.01722151     0.15200
H2921       H  0.60312092  0.80439485  0.07147791     0.15200
C2922       C  0.55151118  0.81631969  0.03917592    -0.23800
H2923       H  0.65841662  0.69225347  0.02485638     0.05400
H2924       H  0.63515111  0.66669469  0.04752855     0.08600
H2925       H  0.67238597  0.69767871  0.05481183     0.08600
H2926       H  0.53537551  0.82080614  0.05545891     0.08600
H2927       H  0.53296494  0.81533519  0.02362385     0.08600
H2928       H  0.57013982  0.83991670  0.03652038     0.05400
C2929       C  0.89468039  0.77832482  0.05438512    -0.20400
C2930       C  0.87956609  0.74551553  0.06291802    -0.07000
C2931       C  0.88977926  0.71247054  0.05195257     0.13900
C2932       C  0.91650831  0.71317203  0.03425005    -0.20500
C2933       C  0.93307951  0.74582563  0.02709282    -0.07000
C2934       C  0.92142363  0.77886650  0.03685680     0.13900
C2935       C  0.93801927  0.81470971  0.02939689    -0.23800
H2936       H  0.88682596  0.80398173  0.06204142     0.15200
H2937       H  0.92601267  0.68783089  0.02691375     0.15200
C2938       C  0.87336681  0.67628259  0.05884992    -0.23800
H2939       H  0.92542954  0.83797874  0.03864626     0.05400
H2940       H  0.93409766  0.81869200  0.01006359     0.08600
H2941       H  0.96741643  0.81524132  0.03365160     0.08600
H2942       H  0.84341273  0.67714648  0.05670820     0.08600
H2943       H  0.88060843  0.66963500  0.07748088     0.08600
H2944       H  0.88341894  0.65387231  0.04755035     0.05400
C2945       C  0.60269137  0.70681926  0.94480757    -0.20400
C2946       C  0.62054758  0.73969725  0.93920713    -0.07000
C2947       C  0.61352438  0.77092079  0.95315185     0.13900
C2948       C  0.58659881  0.76911132  0.97065337    -0.20500
C2949       C  0.56687139  0.73697772  0.97472197    -0.07000
C2950       C  0.57613942  0.70503335  0.96244065     0.13900
C2951       C  0.55823186  0.66874115  0.96734885    -0.23800
H2952       H  0.60839022  0.68240035  0.93489255     0.15200
H2953       H  0.57959397  0.79338224  0.98041522     0.15200
C2954       C  0.63385532  0.80633605  0.94978887    -0.23800
H2955       H  0.57929749  0.64871510  0.97232496     0.05400
H2956       H  0.54379830  0.65902963  0.95116455     0.08600
H2957       H  0.53851369  0.66977348  0.98210473     0.08600
H2958       H  0.62696426  0.81832741  0.93229251     0.08600
H2959       H  0.66353832  0.80171800  0.95111562     0.08600
H2960       H  0.62667796  0.82661278  0.96351597     0.05400
C2961       C  0.92862990  0.77871197  0.96398422    -0.20400
C2962       C  0.93421232  0.74399442  0.97334933    -0.07000
C2963       C  0.91317881  0.71447381  0.96488718     0.13900
C2964       C  0.88714943  0.72053169  0.94707500    -0.20500
C2965       C  0.88234658  0.75516034  0.93682709    -0.07000
C2966       C  0.90330342  0.78484977  0.94579250     0.13900
C2967       C  0.90111402  0.82280773  0.93596003    -0.23800
H2968       H  0.94586400  0.80091539  0.97009383     0.15200
H2969       H  0.87142216  0.69752661  0.94056578     0.15200
C2970       C  0.91848006  0.67611235  0.97349688    -0.23800
H2971       H  0.92163963  0.84137604  0.94412127     0.05400
H2972       H  0.87429131  0.83422775  0.94007363     0.08600
H2973       H  0.90615349  0.82267553  0.91656646     0.08600
H2974       H  0.89293308  0.66582629  0.98158247     0.08600
H2975       H  0.94054054  0.67392723  0.98685790     0.08600
H2976       H  0.92547887  0.65844943  0.95827956     0.05400
C2977       C  0.81715650  0.50451328  0.25519384    -0.20400
C2978       C  0.78316015  0.49757918  0.26628395    -0.07000
C2979       C  0.78467409  0.48829303  0.29117140     0.13900
C2980       C  0.81784410  0.49205288  0.30366508    -0.20500
C2981       C  0.85018041  0.50166777  0.29233101    -0.07000
C2982       C  0.84997638  0.50739394  0.26779661     0.13900
C2983       C  0.88458511  0.51634735  0.25481327    -0.23800
H2984       H  0.81801250  0.50911774  0.23635821     0.15200
H2985       H  0.81882366  0.48601236  0.32248755     0.15200
C2986       C  0.75455038  0.97105844  0.30564511    -0.23800
H2987       H  0.87983750  0.51994681  0.23547283     0.05400
H2988       H  0.90426545  0.99400421  0.25728629     0.08600
H2989       H  0.89657509  0.54199136  0.26188459     0.08600
H2990       H  0.73268723  0.95804288  0.29529640     0.08600
H2991       H  0.74323135  0.49139416  0.31801226     0.08600
H2992       H  0.76564113  0.94841057  0.31645566     0.05400
C2993       C  0.70691464  0.52575553  0.27990473    -0.20400
C2994       C  0.71173636  0.49717776  0.26334517    -0.07000
C2995       C  0.68210774  0.97115699  0.26128141     0.13900
C2996       C  0.65298654  0.97277096  0.27727556    -0.20500
C2997       C  0.64916337  0.50112504  0.29347105    -0.07000
C2998       C  0.67633730  0.52838279  0.29452088     0.13900
C2999       C  0.67433025  0.55972990  0.31163686    -0.23800
H3000       H  0.72811480  0.54612622  0.28193739     0.15200
H3001       H  0.63154195  0.95239180  0.27610756     0.15200
C3002       C  0.67620937  0.94275546  0.24216705    -0.23800
H3003       H  0.69879391  0.57761192  0.31075621     0.05400
H3004       H  0.67222373  0.04923048  0.33011020     0.08600
H3005       H  0.65049149  0.57672447  0.30730346     0.08600
H3006       H  0.67963475  0.91517184  0.24983149     0.08600
H3007       H  0.69291141  0.44577923  0.22630505     0.08600
H3008       H  0.64800624  0.94456236  0.23517043     0.05400
C3009       C  0.76841515  0.56646366  0.24345705    -0.20400
C3010       C  0.74624798  0.53658140  0.23593848    -0.07000
C3011       C  0.72012620  0.54448971  0.21763644     0.13900
C3012       C  0.72187480  0.57791571  0.20543581    -0.20500
C3013       C  0.74722658  0.60499808  0.21136801    -0.07000
C3014       C  0.76969688  0.59982747  0.23131123     0.13900
C3015       C  0.79390191  0.63000221  0.24065686    -0.23800
H3016       H  0.78465673  0.56461185  0.25939275     0.15200
H3017       H  0.70338091  0.58285406  0.19078145     0.15200
C3018       C  0.68976316  0.51897217  0.21036221    -0.23800
H3019       H  0.80759873  0.62227878  0.25750852     0.05400
H3020       H  0.77749693  0.65453378  0.24412894     0.08600
H3021       H  0.81544563  0.63669880  0.22770627     0.08600
H3022       H  0.67099749  0.51452778  0.22531003     0.08600
H3023       H  0.70042666  0.49325376  0.20350722     0.08600
H3024       H  0.67292234  0.53036423  0.19578982     0.05400
C3025       C  0.76380377  0.93181355  0.19563981    -0.20400
C3026       C  0.75803345  0.89857374  0.20706890    -0.07000
C3027       C  0.75503792  0.89773287  0.23182298     0.13900
C3028       C  0.75502360  0.93056526  0.24441869    -0.20500
C3029       C  0.75556459  0.96503311  0.23298286    -0.07000
C3030       C  0.76475587  0.96492875  0.20816134     0.13900
C3031       C  0.77808294  0.99703402  0.19368209    -0.23800
H3032       H  0.76842488  0.93182422  0.17662264     0.15200
H3033       H  0.75166578  0.92911438  0.26338937     0.15200
C3034       C  0.75073287  0.86220036  0.24489741    -0.23800
H3035       H  0.80289970  0.98917728  0.18392414     0.05400
H3036       H  0.78660856  0.02105212  0.20387632     0.08600
H3037       H  0.75717453  0.00473109  0.18037870     0.08600
H3038       H  0.77455369  0.84479279  0.24148836     0.08600
H3039       H  0.72569520  0.84792301  0.23870752     0.08600
H3040       H  0.74859846  0.86629164  0.26436130     0.05400
loop_ 
_geom_bond_atom_site_label_1 
_geom_bond_atom_site_label_2 
_geom_bond_distance 
_geom_bond_site_symmetry_2 
_ccdc_geom_bond_type 
C1          C749   1.570       .  S
C1         C1458   1.589       .  S
C1         C1474   1.577       .  S
C1         C1490   1.587       .  S
C2            C3   1.409   1_556  A
C2         C1527   1.400       .  A
C2          C682   1.476       .  S
C3         C1524   1.401       .  A
C3          C653   1.479       .  S
C4            C5   1.403   1_655  A
C4         C1523   1.401       .  A
C4            H9   1.084       .  S
C5            C6   1.411   1_554  A
C5          C634   1.484       .  S
C6            C7   1.401       .  A
C6          C669   1.477       .  S
C7         C1522   1.400   1_455  A
C7            H8   1.084       .  S
C10         C570   1.571   1_565  S
C10         C586   1.583       .  S
C10         C602   1.595   1_565  S
C10        C1381   1.594       .  S
C11         C541   1.581   1_655  S
C11        C2026   1.573   1_655  S
C11        C2042   1.599       .  S
C11        C2074   1.592       .  S
C12          C13   1.407   1_556  A
C12          C17   1.399       .  A
C12         C490   1.472       .  S
C13          C14   1.399       .  A
C13         C461   1.479       .  S
C14         C775   1.401       .  A
C14          H19   1.084       .  S
C15          C16   1.411   1_554  A
C15         C774   1.401   1_545  A
C15         C442   1.474       .  S
C16         C777   1.399       .  A
C16         C474   1.479       .  S
C17         C776   1.399       .  A
C17          H18   1.084       .  S
C20          C57   1.468       .  S
C20         C685   1.495       .  S
C20          N38   1.354       .  A
N21          N38   1.324       .  A
N21          N43   1.316       .  A
N21         Co58   2.090       .  S
C22          C60   1.461       .  S
C22          H67   1.082       .  S
C22          N47   1.344       .  A
H23          C64   1.080       .  S
C24          C28   1.463       .  S
C24          H53   1.080       .  S
C24          N48   1.340       .  A
Co25         N43   2.075       .  S
Co25         N33   2.084       .  S
Co25         N65   2.093       .  S
Co25         N41   2.091       .  S
Co25        Cl69   2.454       .  S
N26          C64   1.336       .  A
N26          N33   1.316       .  A
N26         Co27   2.067       .  S
Co27         N30   2.084       .  S
Co27         N47   2.099       .  S
Co27         N34   2.082       .  S
Co27        Cl69   2.452       .  S
C28         C666   1.487       .  S
C28          N66   1.350       .  A
N29          N36   1.316       .  A
N29          N59   1.325       .  A
N29         Co62   2.088       .  S
N30          N48   1.317       .  A
N30          N66   1.323       .  A
N31          C60   1.349       .  A
N31          N41   1.325       .  A
H32          C57   1.075       .  S
N33          N54   1.324       .  A
N34          N52   1.323       .  A
N34          N39   1.324       .  A
C35          C63   1.460       .  S
C35         C538   1.474       .  S
C35          N39   1.347       .  A
N36          C51   1.338       .  A
N36         Co58   2.078       .  S
C37          C40   1.470       .  S
C37          H71   1.077       .  S
C37          N65   1.344       .  A
C40         C557   1.497       .  S
C40          N61   1.354       .  A
N41          N47   1.323       .  A
N42          C68   1.345       .  A
N42          N44   1.322       .  A
N42         Co58   2.104       .  S
N43          C57   1.339       .  A
N44          N72   1.325       .  A
N44         Co62   2.091       .  S
H45          C68   1.079       .  S
H46          C63   1.082       .  S
N48         Co62   2.077       .  S
N49          N61   1.324       .  A
N49          N65   1.321       .  A
N49         Co58   2.094       .  S
C50          C64   1.460       .  S
C50         C493   1.485       .  S
C50          N54   1.352       .  A
C51          C70   1.467       .  S
C51          H55   1.077       .  S
N52          C63   1.344       .  A
N52         Co62   2.098       .  S
C56          C68   1.468       .  S
C56         C605   1.492       .  S
C56          N72   1.351       .  A
Co58        Cl69   2.452       .  S
N59          C70   1.354       .  A
C60         C618   1.479       .  S
Co62        Cl69   2.455       .  S
C70         C477   1.494       .  S
C73         C110   1.459       .  S
C73         C746   1.474       .  S
C73          N91   1.349       .  A
N74          N91   1.325       .  A
N74          N96   1.321       .  A
N74        Co111   2.088       .  S
C75         C113   1.461       .  S
C75         H120   1.081       .  S
C75         N100   1.340       .  A
H76         C117   1.082       .  S
C77          C81   1.463       .  S
C77         H106   1.081       .  S
C77         N101   1.340       .  A
Co78         N96   2.092       .  S
Co78         N86   2.077       .  S
Co78        N118   2.062       .  S
Co78         N94   2.092       .  S
Co78       Cl122   2.450       .  S
N79         C117   1.340       .  A
N79          N86   1.321       .  A
N79         Co80   2.087       .  S
Co80         N83   2.094       .  S
Co80        N100   2.082       .  S
Co80         N87   2.080       .  S
Co80       Cl122   2.453       .  S
C81         C733   1.486       .  S
C81         N119   1.354       .  A
N82          N89   1.320       .  A
N82         N112   1.325       .  A
N82        Co115   2.080       .  S
N83         N101   1.321       .  A
N83         N119   1.326       .  A
N84         C113   1.352       .  A
N84          N94   1.326       .  A
H85         C110   1.083       .  S
N86         N107   1.323       .  A
N87         N105   1.317       .  A
N87          N92   1.322       .  A
C88         C116   1.461       .  S
C88         C445   1.485       .  S
C88          N92   1.350       .  A
N89         C104   1.341       .  A
N89        Co111   2.096       .  S
C90          C93   1.456       .  S
C90         H124   1.080       .  S
C90         N118   1.336       .  A
C93         C458   1.480       .  S
C93         N114   1.354       .  A
N94         N100   1.318       .  A
N95         C121   1.336       .  A
N95          N97   1.317       .  A
N95        Co111   2.068       .  S
N96         C110   1.342       .  A
N97         N125   1.326       .  A
N97        Co115   2.095       .  S
H98         C121   1.080       .  S
H99         C116   1.081       .  S
N101       Co115   2.092       .  S
N102        N114   1.326       .  A
N102        N118   1.316       .  A
N102       Co111   2.091       .  S
C103        C117   1.459       .  S
C103        C413   1.467       .  S
C103        N107   1.347       .  A
C104        C123   1.467       .  S
C104        H108   1.080       .  S
N105        C116   1.336       .  A
N105       Co115   2.067       .  S
C109        C121   1.461       .  S
C109        C650   1.492       .  S
C109        N125   1.355       .  A
Co111      Cl122   2.449       .  S
N112        C123   1.350       .  A
C113        C637   1.486       .  S
Co115      Cl122   2.450       .  S
C123        C429   1.485       .  S
C126        C525   1.489       .  S
C126       C1683   1.468       .  S
C126        N144   1.351       .  A
N127        N144   1.324       .  A
N127       N1669   1.320       .  A
N127       Co164   2.082       .  S
C128        C166   1.461       .  S
C128        H173   1.077       .  S
C128        N153   1.334       .  A
H129        C170   1.083       .  S
C130        C134   1.461       .  S
C130        H159   1.082       .  S
C130        N154   1.342       .  A
Co131       N149   2.098       .  S
Co131       N139   2.091       .  S
Co131       N171   2.080       .  S
Co131       N147   2.095       .  S
Co131     Cl2455   2.457       .  S
N132        C170   1.341       .  A
N132        N899   1.321   1_545  A
N132       Co133   2.087       .  S
Co133       N136   2.078       .  S
Co133       N153   2.070       .  S
Co133       N140   2.081       .  S
Co133     Cl1695   2.443   1_545  S
C134        C509   1.471       .  S
C134       N1692   1.347       .  A
N135        N165   1.324       .  A
N135        N902   1.319   1_545  A
N135       Co168   2.088       .  S
N136        N172   1.323       .  A
N136       N1674   1.321   1_455  A
N137        C926   1.357       .  A
N137        N147   1.327       .  A
H138        C163   1.079       .  S
N139        N160   1.325       .  A
N139        N892   1.321       .  A
N140        N145   1.322       .  A
N140       N1678   1.317   1_455  A
C141        C378   1.485       .  S
C141       C1689   1.462       .  S
C141        N145   1.349   1_655  A
N142        C157   1.340       .  A
N142        N895   1.319       .  A
N142       Co164   2.090       .  S
C143        C146   1.464       .  S
C143        H177   1.080       .  S
C143        N171   1.341       .  A
C146        C397   1.488       .  S
C146       N1687   1.349   1_455  A
N147        N913   1.316       .  A
N148        C174   1.338       .  A
N148        N910   1.316       .  A
N148       Co164   2.070       .  S
N149        C163   1.342       .  A
N149       N1647   1.320   1_455  A
N150        N178   1.324       .  A
N150        N908   1.316   1_545  A
N150       Co168   2.092       .  S
H151        C174   1.077       .  S
H152        C169   1.081       .  S
N153        N907   1.316   1_545  A
N154       N1656   1.321       .  A
N154       Co168   2.094       .  S
N155        N167   1.323       .  A
N155       N1691   1.318       .  A
N155       Co164   2.083       .  S
C156        C170   1.459       .  S
C156        C589   1.473       .  S
C156        N920   1.351   1_545  A
C157        C936   1.468       .  S
C157        H161   1.081       .  S
N158        C169   1.339       .  A
N158       N1660   1.317       .  A
N158       Co168   2.074       .  S
N160        C916   1.351       .  A
C162        C934   1.462       .  S
C162       C1122   1.488       .  S
C162        N178   1.355   1_565  A
C163       C1646   1.468       .  S
Co164      Cl935   2.447       .  S
N165        C176   1.354   1_545  A
C166       C1106   1.493       .  S
C166        N897   1.357   1_545  A
N167       C1666   1.349       .  A
Co168      Cl175   2.453   1_545  S
C169       C1661   1.462       .  S
N171       N1675   1.318   1_455  A
N172       C1654   1.347       .  A
C174        C922   1.462       .  S
Cl175     Co2411   2.456       .  S
Cl175     Co1653   2.443   1_565  S
Cl175      Co924   2.447       .  S
C176        C573   1.494       .  S
C176        C917   1.468       .  S
C179        C717   1.490       .  S
C179        C976   1.462   1_545  S
C179        N197   1.352       .  A
N180        N197   1.326       .  A
N180        N962   1.321   1_545  A
N180       Co217   2.093       .  S
C181       C1739   1.466       .  S
C181        H226   1.076       .  S
C181        N206   1.341       .  A
H182        C223   1.082       .  S
C183        C187   1.461       .  S
C183        H212   1.082       .  S
C183        N207   1.343       .  A
Co184       N202   2.087       .  S
Co184       N192   2.079       .  S
Co184       N224   2.065       .  S
Co184       N200   2.076       .  S
Co184     Cl2508   2.445   1_455  S
N185        C223   1.342       .  A
N185       N1712   1.322       .  A
N185       Co186   2.094       .  S
Co186       N189   2.089       .  S
Co186       N206   2.079       .  S
Co186       N193   2.079       .  S
Co186      Cl988   2.454       .  S
C187        C701   1.478       .  S
C187        N985   1.349   1_545  A
N188        N218   1.325       .  A
N188       N1715   1.322       .  A
N188       Co221   2.086       .  S
N189        N225   1.325       .  A
N189        N967   1.323       .  A
N190        C219   1.350   1_455  A
N190        N200   1.321       .  A
H191        C216   1.080       .  S
N192        N213   1.324       .  A
N192       N1705   1.322   1_455  A
N193        N198   1.322       .  A
N193        N971   1.317       .  A
C194        C222   1.463       .  S
C194       C1093   1.488   1_545  S
C194        N958   1.350   1_545  A
N195        C210   1.342       .  A
N195       N1708   1.322   1_455  A
N195       Co217   2.099       .  S
C196        C959   1.457       .  S
C196        H230   1.081       .  S
C196        N224   1.335       .  A
N198        C954   1.350       .  A
C199        C956   1.457       .  S
C199       C1074   1.483       .  S
C199        N220   1.353   1_565  A
N200       N1726   1.316   1_455  A
N201        C227   1.336       .  A
N201       N1723   1.317   1_455  A
N201       Co217   2.073       .  S
N202        C216   1.340       .  A
N202        N940   1.321       .  A
N203        N231   1.326       .  A
N203       N1721   1.317       .  A
N203       Co221   2.091       .  S
H204        C227   1.079       .  S
H205        C222   1.081       .  S
N206       N1720   1.316       .  A
N207        N949   1.323   1_545  A
N207       Co221   2.099       .  S
N208        N220   1.327       .  A
N208        N984   1.317   1_545  A
N208       Co217   2.091       .  S
C209        C223   1.460       .  S
C209        C250   1.473       .  S
C209       N1733   1.347       .  A
C210       C1749   1.467       .  S
C210        H214   1.081       .  S
N211        C222   1.339       .  A
N211        N953   1.317   1_545  A
N211       Co221   2.073       .  S
N213       C1729   1.347   1_455  A
C215        C227   1.463       .  S
C215        C282   1.493       .  S
C215       N1751   1.353   1_455  A
C216        C939   1.462       .  S
Co217     Cl1748   2.454   1_455  S
N218        C229   1.350       .  A
C219        C298   1.485   1_655  S
C219       C1701   1.466       .  S
Co221      Cl228   2.452       .  S
N224        N968   1.317       .  A
N225        C947   1.349       .  A
Cl228     Co2464   2.444   1_545  S
Cl228      Co946   2.454   1_545  S
Cl228     Co1737   2.455       .  S
C229        C266   1.493       .  S
C229       C1730   1.467       .  S
N231       C1735   1.353       .  A
C232        C233   1.415       .  A
C232        C237   1.403       .  A
C232        C394   1.488       .  S
C233        C234   1.402       .  A
C233        C301   1.477       .  S
C234        C235   1.396       .  A
C234        H239   1.085       .  S
C235        C236   1.404       .  A
C235        C285   1.476       .  S
C236        C237   1.399       .  A
C236        C381   1.474   1_455  S
C237        H238   1.086       .  S
C240        C241   1.409       .  A
C240        C245   1.400       .  A
C240        C330   1.475       .  S
C241        C242   1.401       .  A
C241        C365   1.481       .  S
C242        C243   1.401       .  A
C242        H247   1.084       .  S
C243        C244   1.409       .  A
C243        C349   1.478       .  S
C244        C245   1.401       .  A
C244        C317   1.479       .  S
C245        H246   1.084       .  S
C248        C253   1.591       .  S
C248        C269   1.593       .  S
C248        C410   1.570       .  S
C248       C1946   1.580   1_455  S
C249        C254   1.405       .  A
C249       C1770   1.388   1_655  A
C249        H256   1.085       .  S
C250        C251   1.405       .  A
C250       C1769   1.387       .  A
C251        C258   1.508       .  S
C251        C252   1.406       .  A
C252       C1773   1.421       .  A
C252        H257   1.079       .  S
C253        C254   1.446   1_455  A
C253       C1772   1.421       .  A
C254        C255   1.512       .  S
C255        H259   1.104   1_655  S
C255        H261   1.100       .  S
C255       H1780   1.111       .  S
C258        H262   1.110       .  S
C258        H264   1.111       .  S
C258       H1783   1.110       .  S
H260       C1775   1.111       .  S
H263       C1778   1.110       .  S
C265        C270   1.410       .  A
C265       C1786   1.392       .  A
C265        H272   1.085       .  S
C266        C267   1.410       .  A
C266       C1785   1.392       .  A
C267        C274   1.507       .  S
C267        C268   1.407       .  A
C268       C1789   1.423       .  A
C268        H273   1.082       .  S
C269        C270   1.452       .  A
C269       C1788   1.423   1_455  A
C270        C271   1.514       .  S
C271        H275   1.111       .  S
C271        H276   1.105       .  S
C271        H277   1.100       .  S
C274        H278   1.110       .  S
C274        H279   1.110       .  S
C274        H280   1.111       .  S
C281        C282   1.408       .  A
C281        C286   1.399       .  A
C281        H288   1.079       .  S
C282       C1803   1.421   1_455  A
C283        C290   1.507       .  S
C283        C284   1.407       .  A
C283       C1802   1.421       .  A
C284       C1805   1.400       .  A
C284        H289   1.084       .  S
C285        C286   1.409       .  A
C285       C1804   1.400   1_455  A
C286        C287   1.508       .  S
C287        H291   1.110       .  S
C287        H292   1.110       .  S
C287        H293   1.108       .  S
C290        H294   1.110       .  S
C290        H295   1.109       .  S
C290        H296   1.111       .  S
C297        C298   1.405       .  A
C297        C302   1.399       .  A
C297        H304   1.084       .  S
C298       C1819   1.419   1_455  A
C299        C306   1.502       .  S
C299        C300   1.403       .  A
C299       C1818   1.418       .  A
C300       C1821   1.399       .  A
C300        H305   1.084       .  S
C301        C302   1.415       .  A
C301       C1820   1.398   1_455  A
C302        C303   1.512       .  S
C303        H307   1.111       .  S
C303        H308   1.107       .  S
C303        H309   1.109       .  S
C306        H310   1.106       .  S
C306        H311   1.110       .  S
C306        H312   1.111       .  S
C313        C314   1.404       .  A
C313        C318   1.395       .  A
C313       H1080   1.083       .  S
C314        C315   1.417       .  A
C314        C959   1.483       .  S
C315        C322   1.507       .  S
C315        C316   1.408       .  A
C316        C317   1.404       .  A
C316        H321   1.085       .  S
C317        C318   1.413       .  A
C318        C319   1.510       .  S
C319        H324   1.107       .  S
C319       H1083   1.111       .  S
C319       H1085   1.111       .  S
H320       C1073   1.083       .  S
C322        H326   1.110       .  S
C322        H328   1.111       .  S
C322       H1087   1.109       .  S
H323       C1079   1.111       .  S
H325       C1079   1.111       .  S
H327       C1082   1.109       .  S
C329        C330   1.399       .  A
C329        C334   1.401       .  A
C329        H336   1.085       .  S
C330       C1091   1.408       .  A
C331        C338   1.506       .  S
C331        C332   1.402       .  A
C331       C1090   1.408   1_545  A
C332       C1093   1.408   1_545  A
C332        H337   1.081       .  S
C333        C334   1.420       .  A
C333       C1092   1.408       .  A
C333        C954   1.488       .  S
C334        C335   1.506       .  S
C335        H339   1.111       .  S
C335        H340   1.104       .  S
C335        H341   1.110       .  S
C338        H342   1.107       .  S
C338        H343   1.110       .  S
C338        H344   1.111       .  S
C345        C346   1.409       .  A
C345        C350   1.405       .  A
C345        H352   1.085       .  S
C346       C1107   1.423       .  A
C346        C926   1.493       .  S
C347        C354   1.506       .  S
C347        C348   1.399       .  A
C347       C1106   1.423       .  A
C348       C1109   1.397       .  A
C348        H353   1.086       .  S
C349        C350   1.411       .  A
C349       C1108   1.397       .  A
C350        C351   1.505       .  S
C351        H355   1.110       .  S
C351        H356   1.104       .  S
C351       H1117   1.110       .  S
C354        H359   1.104       .  S
C354        H360   1.111       .  S
C354       H1118   1.110       .  S
H357       C1111   1.110       .  S
H358       C1114   1.110       .  S
C361        C366   1.398       .  A
C361       C1122   1.403   1_545  A
C361        H368   1.084       .  S
C362        C363   1.422       .  A
C362       C1121   1.403       .  A
C362        C922   1.488       .  S
C363        C370   1.504       .  S
C363        C364   1.407       .  A
C364        C365   1.400       .  A
C364        H369   1.084       .  S
C365       C1126   1.414       .  A
C366        C367   1.509       .  S
C366       C1125   1.414       .  A
C367        H371   1.111       .  S
C367        H373   1.108       .  S
C367       H1132   1.110       .  S
C370        H374   1.106       .  S
C370        H375   1.110       .  S
C370        H376   1.111       .  S
H372       C1127   1.110       .  S
C377        C382   1.400       .  A
C377       C1898   1.406       .  A
C377        H384   1.081       .  S
C378        C379   1.420   1_655  A
C378       C1897   1.406       .  A
C379        C386   1.505       .  S
C379        C380   1.402       .  A
C380        C381   1.397   1_455  A
C380        H385   1.082       .  S
C381       C1902   1.409       .  A
C382        C383   1.508       .  S
C382       C1901   1.409       .  A
C383        H387   1.111       .  S
C383        H388   1.110       .  S
C383        H389   1.109       .  S
C386        H390   1.110       .  S
C386        H391   1.109       .  S
C386        H392   1.111       .  S
C393        C398   1.402       .  A
C393       C1914   1.403       .  A
C393        H400   1.084       .  S
C394        C395   1.412       .  A
C394       C1913   1.403   1_455  A
C395        C402   1.504       .  S
C395        C396   1.405       .  A
C396        C397   1.406       .  A
C396        H401   1.082       .  S
C397       C1918   1.418   1_455  A
C398        C399   1.508       .  S
C398       C1917   1.418       .  A
C399        H403   1.111       .  S
C399        H404   1.107       .  S
C399        H405   1.110       .  S
C402        H406   1.105       .  S
C402        H407   1.110       .  S
C402        H408   1.111       .  S
C409        C410   1.424       .  A
C409        C414   1.400       .  A
C409        H416   1.083       .  S
C410        C411   1.443       .  A
C411        C418   1.512       .  S
C411        C412   1.407       .  A
C412        C413   1.395       .  A
C412        H417   1.086       .  S
C413        C414   1.398       .  A
C414        C415   1.507       .  S
C415        H419   1.111       .  S
C415        H420   1.110       .  S
C415        H421   1.110       .  S
C418        H422   1.093   1_455  S
C418        H423   1.110   1_455  S
C418        H424   1.111       .  S
C425        C426   1.423       .  A
C425        C430   1.401       .  A
C425        H432   1.078       .  S
C426       C1768   1.582       .  S
C426        C427   1.436       .  A
C427        C434   1.509       .  S
C427        C428   1.412       .  A
C428        C429   1.402       .  A
C428        H433   1.084       .  S
C429        C430   1.406       .  A
C430        C431   1.510       .  S
C431        H435   1.111       .  S
C431        H436   1.111       .  S
C431        H437   1.105       .  S
C434        H438   1.107       .  S
C434        H439   1.099       .  S
C434        H440   1.111       .  S
C441        C442   1.401       .  A
C441        C446   1.402       .  A
C441        H448   1.086       .  S
C442        C443   1.409       .  A
C443        C450   1.506       .  S
C443        C444   1.399       .  A
C444        C445   1.406       .  A
C444        H449   1.082       .  S
C445        C446   1.419       .  A
C446        C447   1.508       .  S
C447        H451   1.111       .  S
C447        H452   1.106       .  S
C447        H453   1.110       .  S
C450        H454   1.104       .  S
C450        H455   1.110       .  S
C450        H456   1.111       .  S
C457        C458   1.402       .  A
C457        C462   1.400       .  A
C457        H464   1.085       .  S
C458        C459   1.420       .  A
C459        C466   1.508       .  S
C459        C460   1.402       .  A
C460        C461   1.400       .  A
C460        H465   1.083       .  S
C461        C462   1.413       .  A
C462        C463   1.508       .  S
C463        H467   1.111       .  S
C463        H468   1.108       .  S
C463        H469   1.110       .  S
C466        H470   1.110       .  S
C466        H471   1.107       .  S
C466        H472   1.111       .  S
C473        C474   1.399       .  A
C473        C478   1.401       .  A
C473        H480   1.085       .  S
C474        C475   1.408       .  A
C475        C482   1.506       .  S
C475        C476   1.406       .  A
C476        C477   1.411       .  A
C476        H481   1.084       .  S
C477        C478   1.421       .  A
C478        C479   1.505       .  S
C479        H483   1.111       .  S
C479        H484   1.109       .  S
C479        H485   1.110       .  S
C482        H486   1.107       .  S
C482        H487   1.110       .  S
C482        H488   1.111       .  S
C489        C490   1.398       .  A
C489        C494   1.403       .  A
C489        H496   1.085       .  S
C490        C491   1.409       .  A
C491        C498   1.509       .  S
C491        C492   1.398       .  A
C492        C493   1.407       .  A
C492        H497   1.082       .  S
C493        C494   1.419       .  A
C494        C495   1.504       .  S
C495        H499   1.111       .  S
C495        H500   1.109       .  S
C495        H501   1.110       .  S
C498        H502   1.109       .  S
C498        H503   1.109       .  S
C498        H504   1.111       .  S
C505        C506   1.419       .  A
C505        C510   1.402       .  A
C505        H512   1.075       .  S
C506       C1531   1.574       .  S
C506       C2027   1.444       .  A
C507        C514   1.515       .  S
C507        C508   1.406       .  A
C507       C2026   1.444       .  A
C508       C2029   1.390       .  A
C508        H513   1.084       .  S
C509        C510   1.404       .  A
C509       C2028   1.390       .  A
C510        C511   1.508       .  S
C511        H515   1.111       .  S
C511        H516   1.110       .  S
C511        H517   1.110       .  S
C514        H518   1.107   1_455  S
C514        H519   1.107       .  S
C514        H520   1.111       .  S
C521        C526   1.404       .  A
C521       C2042   1.429   1_455  A
C521        H528   1.077       .  S
C522       C1531   1.599       .  S
C522        C523   1.438       .  A
C522       C2041   1.430       .  A
C523        C530   1.504       .  S
C523        C524   1.408       .  A
C524        C525   1.399       .  A
C524        H529   1.084       .  S
C525       C2046   1.405       .  A
C526        C527   1.510       .  S
C526       C2045   1.405       .  A
C527        H531   1.111       .  S
C527        H532   1.110       .  S
C527        H533   1.106       .  S
C530        H534   1.086       .  S
C530        H535   1.111       .  S
C530        H536   1.111       .  S
C537        C538   1.388       .  A
C537        C542   1.402       .  A
C537        H544   1.084       .  S
C538        C539   1.407       .  A
C539        C546   1.507       .  S
C539        C540   1.407       .  A
C540        C541   1.422       .  A
C540        H545   1.076       .  S
C541        C542   1.444       .  A
C542        C543   1.511       .  S
C543        H547   1.110       .  S
C543        H548   1.111       .  S
C543        H549   1.096       .  S
C546        H550   1.110       .  S
C546        H551   1.110       .  S
C546        H552   1.111       .  S
C553        C554   1.422       .  A
C553        C558   1.408       .  A
C553        H560   1.083       .  S
C554       C1531   1.592       .  S
C554        C555   1.453       .  A
C555        C562   1.520       .  S
C555        C556   1.409       .  A
C556        C557   1.395       .  A
C556        H561   1.085       .  S
C557        C558   1.412       .  A
C558        C559   1.505       .  S
C559        H563   1.111       .  S
C559        H564   1.110       .  S
C559        H565   1.108       .  S
C562        H566   1.105       .  S
C562        H567   1.101       .  S
C562        H568   1.111       .  S
C569        C574   1.404       .  A
C569       C1330   1.420       .  A
C569        H576   1.076       .  S
C570        C571   1.437       .  A
C570       C1329   1.420   1_545  A
C571        C578   1.513       .  S
C571        C572   1.408       .  A
C572        C573   1.403   1_545  A
C572        H577   1.084       .  S
C573       C1334   1.412       .  A
C574        C575   1.508       .  S
C574       C1333   1.412       .  A
C575        H579   1.111       .  S
C575        H580   1.110       .  S
C575        H581   1.107       .  S
C578        H582   1.107       .  S
C578        H583   1.104       .  S
C578        H584   1.111       .  S
C585        C586   1.426       .  A
C585        C590   1.402       .  A
C585        H592   1.083       .  S
C586        C587   1.448       .  A
C587        C594   1.514       .  S
C587        C588   1.408   1_565  A
C588        C589   1.393       .  A
C588        H593   1.086       .  S
C589        C590   1.399   1_545  A
C590        C591   1.506       .  S
C591        H595   1.111       .  S
C591        H597   1.110   1_565  S
C591       H1356   1.110       .  S
C594        H599   1.110   1_565  S
C594        H600   1.112       .  S
C594       H1358   1.093       .  S
H596       C1351   1.110       .  S
H598       C1354   1.093       .  S
C601        C602   1.426       .  A
C601        C606   1.406       .  A
C601        H608   1.075       .  S
C602        C603   1.442       .  A
C603        C610   1.513       .  S
C603        C604   1.412       .  A
C604        C605   1.399       .  A
C604        H609   1.084       .  S
C605        C606   1.407       .  A
C606        C607   1.510       .  S
C607        H611   1.111       .  S
C607        H612   1.110       .  S
C607        H613   1.109       .  S
C610        H614   1.107       .  S
C610        H615   1.104   1_545  S
C610        H616   1.111       .  S
C617        C618   1.389       .  A
C617        C622   1.408       .  A
C617        H624   1.085       .  S
C618        C619   1.404       .  A
C619        C626   1.507       .  S
C619        C620   1.408       .  A
C620        C621   1.423       .  A
C620        H625   1.077       .  S
C621        C770   1.594       .  S
C621        C622   1.446       .  A
C622        C623   1.511       .  S
C623        H627   1.111       .  S
C623        H628   1.099       .  S
C623        H629   1.104       .  S
C626        H630   1.110       .  S
C626        H631   1.110       .  S
C626        H632   1.111       .  S
C633        C634   1.399       .  A
C633        C638   1.402       .  A
C633        H640   1.084       .  S
C634        C635   1.415       .  A
C635        C642   1.507       .  S
C635        C636   1.402       .  A
C636        C637   1.404       .  A
C636        H641   1.085       .  S
C637        C638   1.419       .  A
C638        C639   1.505       .  S
C639        H643   1.111       .  S
C639        H644   1.109       .  S
C639        H645   1.106       .  S
C642        H646   1.110       .  S
C642        H647   1.108       .  S
C642        H648   1.111       .  S
C649        C650   1.408       .  A
C649        C654   1.400       .  A
C649        H656   1.082       .  S
C650        C651   1.420       .  A
C651        C658   1.507       .  S
C651        C652   1.406       .  A
C652        C653   1.401       .  A
C652        H657   1.083       .  S
C653        C654   1.408       .  A
C654        C655   1.507       .  S
C655        H659   1.111       .  S
C655        H660   1.108       .  S
C655        H661   1.107       .  S
C658        H662   1.110       .  S
C658        H663   1.109       .  S
C658        H664   1.111       .  S
C665        C666   1.406       .  A
C665        C670   1.399       .  A
C665        H672   1.082       .  S
C666        C667   1.421       .  A
C667        C674   1.507       .  S
C667        C668   1.404       .  A
C668        C669   1.399       .  A
C668        H673   1.084       .  S
C669        C670   1.411       .  A
C670        C671   1.508       .  S
C671        H675   1.111       .  S
C671        H676   1.110       .  S
C671        H677   1.109       .  S
C674        H678   1.109       .  S
C674        H679   1.110       .  S
C674        H680   1.111       .  S
C681        C682   1.398       .  A
C681        C686   1.402       .  A
C681        H688   1.083       .  S
C682        C683   1.409       .  A
C683        C690   1.506       .  S
C683        C684   1.404       .  A
C684        C685   1.411       .  A
C684        H689   1.083       .  S
C685        C686   1.422       .  A
C686        C687   1.504       .  S
C687        H691   1.111       .  S
C687        H692   1.104       .  S
C687        H693   1.110       .  S
C690        H694   1.110       .  S
C690        H695   1.108       .  S
C690        H696   1.110       .  S
C697        C698   1.424   1_545  A
C697        C702   1.402       .  A
C697        H704   1.076       .  S
C698        C761   1.589       .  S
C698        C699   1.444       .  A
C699       C1466   1.514       .  S
C699        C700   1.412       .  A
C700        C701   1.397   1_565  A
C700        H705   1.084       .  S
C701        C702   1.399       .  A
C702        C703   1.507       .  S
C703        H707   1.111       .  S
C703        H709   1.110       .  S
C703       H1468   1.110   1_545  S
C706       C1459   1.514       .  S
C706        H710   1.097       .  S
C706        H712   1.112       .  S
C706       H1471   1.110       .  S
H708       C1463   1.110       .  S
H711       C1466   1.110       .  S
C713        C714   1.421   1_545  A
C713        C718   1.405       .  A
C713        H720   1.082       .  S
C714        C761   1.577       .  S
C714       C1475   1.448       .  A
C715        C722   1.515       .  S
C715        C716   1.407       .  A
C715       C1474   1.448       .  A
C716       C1477   1.396       .  A
C716        H721   1.084       .  S
C717        C718   1.410       .  A
C717       C1476   1.396   1_545  A
C718        C719   1.507       .  S
C719        H723   1.111       .  S
C719        H725   1.110       .  S
C719       H1484   1.110       .  S
C722        H726   1.110       .  S
C722        H728   1.112       .  S
C722       H1487   1.093       .  S
H724       C1479   1.110       .  S
H727       C1482   1.093       .  S
C729        C730   1.424       .  A
C729        C734   1.405       .  A
C729        H736   1.078       .  S
C730        C761   1.587   1_545  S
C730        C731   1.438       .  A
C731        C738   1.507       .  S
C731        C732   1.410       .  A
C732        C733   1.397       .  A
C732        H737   1.084       .  S
C733        C734   1.406       .  A
C734        C735   1.509       .  S
C735        H739   1.111       .  S
C735        H740   1.110       .  S
C735        H741   1.107       .  S
C738        H742   1.104       .  S
C738        H743   1.100   1_545  S
C738        H744   1.111       .  S
C745        C746   1.396       .  A
C745        C750   1.409       .  A
C745        H752   1.086       .  S
C746        C747   1.400       .  A
C747        C754   1.507       .  S
C747        C748   1.402       .  A
C748        C749   1.422       .  A
C748        H753   1.077       .  S
C749        C750   1.441       .  A
C750        C751   1.513       .  S
C751        H755   1.111       .  S
C751        H756   1.097       .  S
C751        H757   1.110       .  S
C754        H758   1.111       .  S
C754        H759   1.111       .  S
C754        H760   1.111       .  S
C761       C1509   1.570       .  S
C762        C763   1.409   1_556  A
C762       C2287   1.400       .  A
C762       C1442   1.476       .  S
C763       C2284   1.401       .  A
C763       C1413   1.479       .  S
C764       C2283   1.401       .  A
C764        C765   1.403   1_655  A
C764        H769   1.084       .  S
C765        C766   1.411   1_554  A
C765       C1394   1.484       .  S
C766        C767   1.401       .  A
C766       C1429   1.477       .  S
C767       C2282   1.400   1_455  A
C767        H768   1.084       .  S
C770       C1330   1.571       .  S
C770       C1346   1.583       .  S
C770       C1362   1.595       .  S
C771       C2786   1.573   1_655  S
C771       C2802   1.599       .  S
C771       C1301   1.581   1_655  S
C771       C2834   1.592       .  S
C772        C773   1.407   1_556  A
C772        C777   1.399   1_565  A
C772       C1250   1.472       .  S
C773        C774   1.399       .  A
C773       C1221   1.479       .  S
C774        H779   1.084       .  S
C775        C776   1.411   1_554  A
C775       C1202   1.474       .  S
C776       C1234   1.479       .  S
C777        H778   1.084       .  S
C780        C817   1.468       .  S
C780       C1445   1.495       .  S
C780        N798   1.354       .  A
N781        N798   1.324       .  A
N781        N803   1.316       .  A
N781       Co818   2.090       .  S
C782        C820   1.461       .  S
C782        H827   1.082       .  S
C782        N807   1.344       .  A
H783        C824   1.080       .  S
C784        C788   1.463       .  S
C784        H813   1.080       .  S
C784        N808   1.340       .  A
Co785       N803   2.075       .  S
Co785       N793   2.085       .  S
Co785       N825   2.093       .  S
Co785       N801   2.091       .  S
Co785      Cl829   2.454       .  S
N786        C824   1.336       .  A
N786        N793   1.316       .  A
N786       Co787   2.067       .  S
Co787       N790   2.084       .  S
Co787       N807   2.099       .  S
Co787       N794   2.082       .  S
Co787      Cl829   2.452       .  S
C788       C1426   1.487       .  S
C788        N826   1.350       .  A
N789        N796   1.316       .  A
N789        N819   1.325       .  A
N789       Co822   2.088       .  S
N790        N808   1.317       .  A
N790        N826   1.323       .  A
N791        C820   1.349       .  A
N791        N801   1.325       .  A
H792        C817   1.075       .  S
N793        N814   1.324       .  A
N794        N812   1.323       .  A
N794        N799   1.324       .  A
C795        C823   1.460       .  S
C795       C1298   1.474       .  S
C795        N799   1.347       .  A
N796        C811   1.338       .  A
N796       Co818   2.078       .  S
C797        C800   1.470       .  S
C797        H831   1.077       .  S
C797        N825   1.344       .  A
C800       C1317   1.497       .  S
C800        N821   1.354       .  A
N801        N807   1.323       .  A
N802        C828   1.345       .  A
N802        N804   1.322       .  A
N802       Co818   2.104       .  S
N803        C817   1.339       .  A
N804        N832   1.325       .  A
N804       Co822   2.091       .  S
H805        C828   1.079       .  S
H806        C823   1.082       .  S
N808       Co822   2.077       .  S
N809        N821   1.324       .  A
N809        N825   1.321       .  A
N809       Co818   2.095       .  S
C810        C824   1.459       .  S
C810       C1253   1.485       .  S
C810        N814   1.352       .  A
C811        C830   1.467       .  S
C811        H815   1.077       .  S
N812        C823   1.344       .  A
N812       Co822   2.098       .  S
C816        C828   1.468       .  S
C816       C1365   1.492       .  S
C816        N832   1.351       .  A
Co818      Cl829   2.452       .  S
N819        C830   1.354       .  A
C820       C1378   1.479       .  S
Co822      Cl829   2.455       .  S
C830       C1237   1.494       .  S
C833        C870   1.459       .  S
C833       C1506   1.474       .  S
C833        N851   1.349       .  A
N834        N851   1.325       .  A
N834        N856   1.321       .  A
N834       Co871   2.088       .  S
C835        C873   1.461       .  S
C835        H880   1.081       .  S
C835        N860   1.340       .  A
H836        C877   1.082       .  S
C837        C841   1.463       .  S
C837        H866   1.081       .  S
C837        N861   1.340       .  A
Co838       N856   2.092       .  S
Co838       N846   2.077       .  S
Co838       N878   2.062       .  S
Co838       N854   2.092       .  S
Co838      Cl882   2.450       .  S
N839        C877   1.340       .  A
N839        N846   1.321       .  A
N839       Co840   2.087       .  S
Co840       N843   2.094       .  S
Co840       N860   2.082       .  S
Co840       N847   2.081       .  S
Co840      Cl882   2.453       .  S
C841       C1493   1.486       .  S
C841        N879   1.354       .  A
N842        N849   1.320       .  A
N842        N872   1.325       .  A
N842       Co875   2.080       .  S
N843        N861   1.321       .  A
N843        N879   1.326       .  A
N844        C873   1.352       .  A
N844        N854   1.326       .  A
H845        C870   1.083       .  S
N846        N867   1.323       .  A
N847        N865   1.317       .  A
N847        N852   1.322       .  A
C848        C876   1.461       .  S
C848       C1205   1.485       .  S
C848        N852   1.350       .  A
N849        C864   1.341       .  A
N849       Co871   2.096       .  S
C850        C853   1.456       .  S
C850        H884   1.080       .  S
C850        N878   1.336       .  A
C853       C1218   1.480       .  S
C853        N874   1.354       .  A
N854        N860   1.318       .  A
N855        C881   1.336       .  A
N855        N857   1.317       .  A
N855       Co871   2.068       .  S
N856        C870   1.342       .  A
N857        N885   1.326       .  A
N857       Co875   2.095       .  S
H858        C881   1.080       .  S
H859        C876   1.081       .  S
N861       Co875   2.092       .  S
N862        N874   1.326       .  A
N862        N878   1.316       .  A
N862       Co871   2.091       .  S
C863        C877   1.459       .  S
C863       C1173   1.467       .  S
C863        N867   1.347       .  A
C864        C883   1.467       .  S
C864        H868   1.080       .  S
N865        C876   1.336       .  A
N865       Co875   2.067       .  S
C869        C881   1.461       .  S
C869       C1410   1.492       .  S
C869        N885   1.355       .  A
Co871      Cl882   2.449       .  S
N872        C883   1.350       .  A
C873       C1397   1.486       .  S
Co875      Cl882   2.450       .  S
C883       C1189   1.485       .  S
C886       C2443   1.468       .  S
C886       C1285   1.489       .  S
C886        N904   1.351       .  A
N887        N904   1.324       .  A
N887       N2429   1.320       .  A
N887       Co924   2.082       .  S
C888        C926   1.461       .  S
C888        H933   1.077       .  S
C888        N913   1.334       .  A
H889        C930   1.083       .  S
C890        C894   1.461       .  S
C890        H919   1.082       .  S
C890        N914   1.342       .  A
Co891       N909   2.098       .  S
Co891       N899   2.091       .  S
Co891       N931   2.080       .  S
Co891       N907   2.095       .  S
Co891     Cl1695   2.457       .  S
N892        C930   1.341       .  A
N892       Co893   2.087       .  S
Co893       N896   2.078       .  S
Co893       N913   2.070       .  S
Co893       N900   2.081       .  S
Co893     Cl2455   2.443       .  S
C894       C1269   1.471       .  S
C894       N2452   1.347       .  A
N895        N925   1.324       .  A
N895       Co928   2.088       .  S
N896       N2434   1.321   1_455  A
N896        N932   1.323       .  A
N897        N907   1.327       .  A
H898        C923   1.079       .  S
N899        N920   1.325       .  A
N900       N2438   1.317   1_455  A
N900        N905   1.322       .  A
C901       C2449   1.462       .  S
C901       C1138   1.485       .  S
C901        N905   1.349   1_655  A
N902        C917   1.340       .  A
N902       Co924   2.090       .  S
C903        C906   1.464       .  S
C903        H937   1.080       .  S
C903        N931   1.341       .  A
C906       C1157   1.488       .  S
C906       N2447   1.349   1_455  A
N908        C934   1.339       .  A
N908       Co924   2.070       .  S
N909        C923   1.342       .  A
N909       N2407   1.320   1_455  A
N910        N938   1.324       .  A
N910       Co928   2.092       .  S
H911        C934   1.077       .  S
H912        C929   1.081       .  S
N914       N2416   1.321       .  A
N914       Co928   2.094       .  S
N915        N927   1.323       .  A
N915       N2451   1.318       .  A
N915       Co924   2.083       .  S
C916        C930   1.459       .  S
C916       C1349   1.473       .  S
C917        H921   1.081       .  S
N918        C929   1.339       .  A
N918       N2420   1.317       .  A
N918       Co928   2.074       .  S
C922        N938   1.355       .  A
C923       C2406   1.468       .  S
N925        C936   1.354       .  A
N927       C2426   1.349       .  A
Co928      Cl935   2.453       .  S
C929       C2421   1.463       .  S
N931       N2435   1.318   1_455  A
N932       C2414   1.347       .  A
Cl935     Co1651   2.456       .  S
Cl935     Co2413   2.443       .  S
C936       C1333   1.494       .  S
C939       C1477   1.490       .  S
C939        N957   1.352       .  A
N940        N957   1.326       .  A
N940       Co977   2.093       .  S
C941       C2499   1.466       .  S
C941        H986   1.076       .  S
C941        N966   1.341       .  A
H942        C983   1.082       .  S
C943        C947   1.461       .  S
C943        H972   1.082       .  S
C943        N967   1.343       .  A
Co944       N962   2.087       .  S
Co944       N952   2.079       .  S
Co944       N984   2.065       .  S
Co944       N960   2.076       .  S
Co944     Cl1748   2.445   1_465  S
N945        C983   1.342       .  A
N945       N2472   1.322       .  A
N945       Co946   2.094       .  S
Co946       N949   2.089       .  S
Co946       N966   2.079       .  S
Co946       N953   2.079       .  S
C947       C1461   1.478       .  S
N948       N2475   1.322       .  A
N948        N978   1.325       .  A
N948       Co981   2.086       .  S
N949        N985   1.325       .  A
N950        C979   1.350   1_455  A
N950        N960   1.321       .  A
H951        C976   1.080       .  S
N952       N2465   1.322   1_455  A
N952        N973   1.324       .  A
N953        N958   1.322       .  A
C954        C982   1.463       .  S
N955        C970   1.342       .  A
N955       N2468   1.322   1_455  A
N955       Co977   2.099       .  S
C956        H990   1.081       .  S
C956        N984   1.335       .  A
C959        N980   1.353       .  A
N960       N2486   1.316   1_455  A
N961        C987   1.336       .  A
N961       N2483   1.317   1_455  A
N961       Co977   2.073       .  S
N962        C976   1.340       .  A
N963       N2481   1.317       .  A
N963        N991   1.326       .  A
N963       Co981   2.091       .  S
H964        C987   1.079       .  S
H965        C982   1.081       .  S
N966       N2480   1.316       .  A
N967       Co981   2.099       .  S
N968        N980   1.327       .  A
N968       Co977   2.091       .  S
C969        C983   1.460       .  S
C969       C1010   1.473       .  S
C969       N2493   1.347       .  A
C970       C2509   1.467       .  S
C970        H974   1.081       .  S
N971        C982   1.339       .  A
N971       Co981   2.073       .  S
N973       C2489   1.347   1_455  A
C975        C987   1.463       .  S
C975       C1042   1.493       .  S
C975       N2511   1.353   1_455  A
Co977     Cl2508   2.454   1_455  S
N978        C989   1.350       .  A
C979       C2461   1.466       .  S
C979       C1058   1.485   1_655  S
Co981      Cl988   2.452       .  S
Cl988     Co1704   2.444       .  S
Cl988     Co2497   2.455       .  S
C989       C2490   1.467       .  S
C989       C1026   1.493       .  S
N991       C2495   1.353       .  A
C992        C993   1.415       .  A
C992        C997   1.403       .  A
C992       C1154   1.488       .  S
C993        C994   1.402       .  A
C993       C1061   1.477       .  S
C994        C995   1.396       .  A
C994        H999   1.085       .  S
C995        C996   1.404       .  A
C995       C1045   1.476       .  S
C996        C997   1.399       .  A
C996       C1141   1.474   1_455  S
C997        H998   1.086       .  S
C1000      C1001   1.409   1_565  A
C1000      C1005   1.400       .  A
C1000      C1090   1.475       .  S
C1001      C1002   1.401   1_545  A
C1001      C1125   1.481       .  S
C1002      C1003   1.401       .  A
C1002      H1007   1.084       .  S
C1003      C1004   1.409       .  A
C1003      C1109   1.478   1_565  S
C1004      C1005   1.401       .  A
C1004      C1077   1.479       .  S
C1005      H1006   1.084       .  S
C1008      C1013   1.591       .  S
C1008      C1029   1.593       .  S
C1008      C1170   1.570       .  S
C1008      C2706   1.580   1_455  S
C1009      C2530   1.388   1_655  A
C1009      C1014   1.405       .  A
C1009      H1016   1.085       .  S
C1010      C2529   1.387       .  A
C1010      C1011   1.405       .  A
C1011      C1018   1.508       .  S
C1011      C1012   1.406       .  A
C1012      C2533   1.421       .  A
C1012      H1017   1.079       .  S
C1013      C2532   1.421       .  A
C1013      C1014   1.446   1_455  A
C1014      C1015   1.512       .  S
C1015      H1019   1.104   1_655  S
C1015      H2540   1.111       .  S
C1015      H1021   1.100       .  S
C1018      H1022   1.110       .  S
C1018      H2543   1.110       .  S
C1018      H1024   1.111       .  S
H1020      C2535   1.111       .  S
H1023      C2538   1.110       .  S
C1025      C2546   1.392       .  A
C1025      C1030   1.410       .  A
C1025      H1032   1.085       .  S
C1026      C2545   1.392       .  A
C1026      C1027   1.410       .  A
C1027      C1034   1.507       .  S
C1027      C1028   1.407       .  A
C1028      C2549   1.423       .  A
C1028      H1033   1.082       .  S
C1029      C2548   1.423   1_455  A
C1029      C1030   1.452       .  A
C1030      C1031   1.514       .  S
C1031      H1035   1.111       .  S
C1031      H1036   1.105       .  S
C1031      H1037   1.100       .  S
C1034      H1038   1.110       .  S
C1034      H1039   1.110       .  S
C1034      H1040   1.111       .  S
C1041      C1042   1.408       .  A
C1041      C1046   1.399       .  A
C1041      H1048   1.079       .  S
C1042      C2563   1.421   1_455  A
C1043      C1050   1.507       .  S
C1043      C2562   1.421       .  A
C1043      C1044   1.407       .  A
C1044      C2565   1.400       .  A
C1044      H1049   1.084       .  S
C1045      C2564   1.400   1_455  A
C1045      C1046   1.409       .  A
C1046      C1047   1.508       .  S
C1047      H1051   1.110       .  S
C1047      H1052   1.110       .  S
C1047      H1053   1.108       .  S
C1050      H1054   1.110       .  S
C1050      H1055   1.109       .  S
C1050      H1056   1.111       .  S
C1057      C1058   1.405       .  A
C1057      C1062   1.399       .  A
C1057      H1064   1.084       .  S
C1058      C2579   1.419   1_455  A
C1059      C1066   1.502       .  S
C1059      C2578   1.418       .  A
C1059      C1060   1.403       .  A
C1060      C2581   1.399       .  A
C1060      H1065   1.084       .  S
C1061      C2580   1.398   1_455  A
C1061      C1062   1.415       .  A
C1062      C1063   1.512       .  S
C1063      H1067   1.111       .  S
C1063      H1068   1.107       .  S
C1063      H1069   1.109       .  S
C1066      H1070   1.106       .  S
C1066      H1071   1.110       .  S
C1066      H1072   1.111       .  S
C1073      C1074   1.404       .  A
C1073      C1078   1.395       .  A
C1074      C1075   1.417   1_565  A
C1075      C1082   1.507       .  S
C1075      C1076   1.408       .  A
C1076      C1077   1.404   1_545  A
C1076      H1081   1.085       .  S
C1077      C1078   1.413       .  A
C1078      C1079   1.510       .  S
C1079      H1084   1.107       .  S
C1082      H1086   1.110       .  S
C1082      H1088   1.111       .  S
C1089      C1090   1.399       .  A
C1089      C1094   1.401       .  A
C1089      H1096   1.085       .  S
C1091      C1098   1.506       .  S
C1091      C1092   1.402       .  A
C1092      H1097   1.081       .  S
C1093      C1094   1.420       .  A
C1094      C1095   1.506       .  S
C1095      H1099   1.111       .  S
C1095      H1100   1.104       .  S
C1095      H1101   1.110       .  S
C1098      H1102   1.107       .  S
C1098      H1103   1.110       .  S
C1098      H1104   1.111       .  S
C1105      C1106   1.409   1_565  A
C1105      C1110   1.405       .  A
C1105      H1112   1.085       .  S
C1107      C1114   1.506       .  S
C1107      C1108   1.399       .  A
C1108      H1113   1.086       .  S
C1109      C1110   1.411   1_545  A
C1110      C1111   1.505       .  S
C1111      H1115   1.110       .  S
C1111      H1116   1.104       .  S
C1114      H1119   1.104       .  S
C1114      H1120   1.111       .  S
C1121      C1126   1.398       .  A
C1121      H1128   1.084       .  S
C1122      C1123   1.422       .  A
C1123      C1130   1.504       .  S
C1123      C1124   1.407       .  A
C1124      C1125   1.400   1_565  A
C1124      H1129   1.084       .  S
C1126      C1127   1.509       .  S
C1127      H1131   1.111       .  S
C1127      H1133   1.108       .  S
C1130      H1134   1.106       .  S
C1130      H1135   1.110       .  S
C1130      H1136   1.111       .  S
C1137      C2658   1.406       .  A
C1137      C1142   1.400       .  A
C1137      H1144   1.081       .  S
C1138      C2657   1.406       .  A
C1138      C1139   1.420   1_655  A
C1139      C1146   1.505       .  S
C1139      C1140   1.402       .  A
C1140      C1141   1.397   1_455  A
C1140      H1145   1.082       .  S
C1141      C2662   1.409       .  A
C1142      C1143   1.508       .  S
C1142      C2661   1.409       .  A
C1143      H1147   1.111       .  S
C1143      H1148   1.110       .  S
C1143      H1149   1.109       .  S
C1146      H1150   1.110       .  S
C1146      H1151   1.109       .  S
C1146      H1152   1.111       .  S
C1153      C2674   1.403       .  A
C1153      C1158   1.402       .  A
C1153      H1160   1.084       .  S
C1154      C2673   1.403   1_455  A
C1154      C1155   1.412       .  A
C1155      C1162   1.504       .  S
C1155      C1156   1.405       .  A
C1156      C1157   1.406       .  A
C1156      H1161   1.082       .  S
C1157      C2678   1.418   1_455  A
C1158      C1159   1.508       .  S
C1158      C2677   1.418       .  A
C1159      H1163   1.111       .  S
C1159      H1164   1.107       .  S
C1159      H1165   1.110       .  S
C1162      H1166   1.105       .  S
C1162      H1167   1.110       .  S
C1162      H1168   1.111       .  S
C1169      C1170   1.424       .  A
C1169      C1174   1.400       .  A
C1169      H1176   1.083       .  S
C1170      C1171   1.443       .  A
C1171      C1178   1.512       .  S
C1171      C1172   1.407       .  A
C1172      C1173   1.395       .  A
C1172      H1177   1.086       .  S
C1173      C1174   1.398       .  A
C1174      C1175   1.507       .  S
C1175      H1179   1.111       .  S
C1175      H1180   1.110       .  S
C1175      H1181   1.110       .  S
C1178      H1182   1.093   1_455  S
C1178      H1183   1.110   1_455  S
C1178      H1184   1.111       .  S
C1185      C1186   1.423       .  A
C1185      C1190   1.401       .  A
C1185      H1192   1.078       .  S
C1186      C2528   1.582       .  S
C1186      C1187   1.436       .  A
C1187      C1194   1.509       .  S
C1187      C1188   1.412       .  A
C1188      C1189   1.402       .  A
C1188      H1193   1.084       .  S
C1189      C1190   1.406       .  A
C1190      C1191   1.510       .  S
C1191      H1195   1.111       .  S
C1191      H1196   1.111       .  S
C1191      H1197   1.105       .  S
C1194      H1198   1.107       .  S
C1194      H1199   1.099       .  S
C1194      H1200   1.111       .  S
C1201      C1202   1.401       .  A
C1201      C1206   1.402       .  A
C1201      H1208   1.086       .  S
C1202      C1203   1.409       .  A
C1203      C1210   1.506       .  S
C1203      C1204   1.399       .  A
C1204      C1205   1.406       .  A
C1204      H1209   1.082       .  S
C1205      C1206   1.419       .  A
C1206      C1207   1.508       .  S
C1207      H1211   1.111       .  S
C1207      H1212   1.106       .  S
C1207      H1213   1.110       .  S
C1210      H1214   1.104       .  S
C1210      H1215   1.110       .  S
C1210      H1216   1.111       .  S
C1217      C1218   1.402       .  A
C1217      C1222   1.400       .  A
C1217      H1224   1.085       .  S
C1218      C1219   1.420       .  A
C1219      C1226   1.508       .  S
C1219      C1220   1.402       .  A
C1220      C1221   1.400       .  A
C1220      H1225   1.083       .  S
C1221      C1222   1.413       .  A
C1222      C1223   1.508       .  S
C1223      H1227   1.111       .  S
C1223      H1228   1.108       .  S
C1223      H1229   1.110       .  S
C1226      H1230   1.110       .  S
C1226      H1231   1.107       .  S
C1226      H1232   1.111       .  S
C1233      C1234   1.399       .  A
C1233      C1238   1.401       .  A
C1233      H1240   1.085       .  S
C1234      C1235   1.408       .  A
C1235      C1242   1.506       .  S
C1235      C1236   1.406       .  A
C1236      C1237   1.411       .  A
C1236      H1241   1.084       .  S
C1237      C1238   1.421       .  A
C1238      C1239   1.505       .  S
C1239      H1243   1.111       .  S
C1239      H1244   1.109       .  S
C1239      H1245   1.110       .  S
C1242      H1246   1.107       .  S
C1242      H1247   1.110       .  S
C1242      H1248   1.111       .  S
C1249      C1250   1.398       .  A
C1249      C1254   1.403       .  A
C1249      H1256   1.085       .  S
C1250      C1251   1.409       .  A
C1251      C1258   1.509       .  S
C1251      C1252   1.398       .  A
C1252      C1253   1.407       .  A
C1252      H1257   1.082       .  S
C1253      C1254   1.419       .  A
C1254      C1255   1.504       .  S
C1255      H1259   1.111       .  S
C1255      H1260   1.109       .  S
C1255      H1261   1.110       .  S
C1258      H1262   1.109       .  S
C1258      H1263   1.109       .  S
C1258      H1264   1.111       .  S
C1265      C1266   1.419       .  A
C1265      C1270   1.402       .  A
C1265      H1272   1.075       .  S
C1266      C2291   1.574       .  S
C1266      C2787   1.444       .  A
C1267      C1274   1.515       .  S
C1267      C2786   1.444       .  A
C1267      C1268   1.406       .  A
C1268      C2789   1.390       .  A
C1268      H1273   1.084       .  S
C1269      C2788   1.390       .  A
C1269      C1270   1.404       .  A
C1270      C1271   1.508       .  S
C1271      H1275   1.111       .  S
C1271      H1276   1.110       .  S
C1271      H1277   1.110       .  S
C1274      H1278   1.107   1_455  S
C1274      H1279   1.107       .  S
C1274      H1280   1.111       .  S
C1281      C2802   1.429   1_455  A
C1281      C1286   1.404       .  A
C1281      H1288   1.077       .  S
C1282      C2291   1.599       .  S
C1282      C2801   1.430       .  A
C1282      C1283   1.438       .  A
C1283      C1290   1.504       .  S
C1283      C1284   1.408       .  A
C1284      C1285   1.399       .  A
C1284      H1289   1.084       .  S
C1285      C2806   1.405       .  A
C1286      C1287   1.510       .  S
C1286      C2805   1.405       .  A
C1287      H1291   1.111       .  S
C1287      H1292   1.110       .  S
C1287      H1293   1.106       .  S
C1290      H1294   1.086       .  S
C1290      H1295   1.111       .  S
C1290      H1296   1.111       .  S
C1297      C1298   1.388       .  A
C1297      C1302   1.402       .  A
C1297      H1304   1.084       .  S
C1298      C1299   1.407       .  A
C1299      C1306   1.507       .  S
C1299      C1300   1.407       .  A
C1300      C1301   1.422       .  A
C1300      H1305   1.076       .  S
C1301      C1302   1.444       .  A
C1302      C1303   1.511       .  S
C1303      H1307   1.110       .  S
C1303      H1308   1.111       .  S
C1303      H1309   1.096       .  S
C1306      H1310   1.110       .  S
C1306      H1311   1.110       .  S
C1306      H1312   1.111       .  S
C1313      C1314   1.422       .  A
C1313      C1318   1.408       .  A
C1313      H1320   1.083       .  S
C1314      C2291   1.592       .  S
C1314      C1315   1.453       .  A
C1315      C1322   1.520       .  S
C1315      C1316   1.409       .  A
C1316      C1317   1.395       .  A
C1316      H1321   1.085       .  S
C1317      C1318   1.412       .  A
C1318      C1319   1.505       .  S
C1319      H1323   1.111       .  S
C1319      H1324   1.110       .  S
C1319      H1325   1.108       .  S
C1322      H1326   1.105       .  S
C1322      H1327   1.101       .  S
C1322      H1328   1.111       .  S
C1329      C1334   1.404       .  A
C1329      H1336   1.076       .  S
C1330      C1331   1.437       .  A
C1331      C1338   1.513       .  S
C1331      C1332   1.408       .  A
C1332      C1333   1.402       .  A
C1332      H1337   1.084       .  S
C1334      C1335   1.508       .  S
C1335      H1339   1.111       .  S
C1335      H1340   1.110       .  S
C1335      H1341   1.107       .  S
C1338      H1342   1.107       .  S
C1338      H1343   1.104       .  S
C1338      H1344   1.111       .  S
C1345      C1346   1.426       .  A
C1345      C1350   1.402       .  A
C1345      H1352   1.083       .  S
C1346      C1347   1.448       .  A
C1347      C1354   1.514       .  S
C1347      C1348   1.408       .  A
C1348      C1349   1.393       .  A
C1348      H1353   1.086       .  S
C1349      C1350   1.399       .  A
C1350      C1351   1.506       .  S
C1351      H1355   1.111       .  S
C1351      H1357   1.110       .  S
C1354      H1359   1.110       .  S
C1354      H1360   1.112       .  S
C1361      C1362   1.426       .  A
C1361      C1366   1.406       .  A
C1361      H1368   1.075       .  S
C1362      C1363   1.442       .  A
C1363      C1370   1.513       .  S
C1363      C1364   1.412       .  A
C1364      C1365   1.399       .  A
C1364      H1369   1.084       .  S
C1365      C1366   1.407       .  A
C1366      C1367   1.510       .  S
C1367      H1371   1.111       .  S
C1367      H1372   1.110       .  S
C1367      H1373   1.109       .  S
C1370      H1374   1.107       .  S
C1370      H1375   1.104       .  S
C1370      H1376   1.111       .  S
C1377      C1378   1.389       .  A
C1377      C1382   1.408       .  A
C1377      H1384   1.085       .  S
C1378      C1379   1.404       .  A
C1379      C1386   1.507       .  S
C1379      C1380   1.408       .  A
C1380      C1381   1.423       .  A
C1380      H1385   1.077       .  S
C1381      C1382   1.446       .  A
C1382      C1383   1.511       .  S
C1383      H1387   1.111       .  S
C1383      H1388   1.099       .  S
C1383      H1389   1.104       .  S
C1386      H1390   1.110       .  S
C1386      H1391   1.110       .  S
C1386      H1392   1.111       .  S
C1393      C1394   1.399       .  A
C1393      C1398   1.402       .  A
C1393      H1400   1.084       .  S
C1394      C1395   1.415       .  A
C1395      C1402   1.507       .  S
C1395      C1396   1.402       .  A
C1396      C1397   1.404       .  A
C1396      H1401   1.085       .  S
C1397      C1398   1.419       .  A
C1398      C1399   1.505       .  S
C1399      H1403   1.111       .  S
C1399      H1404   1.109       .  S
C1399      H1405   1.106       .  S
C1402      H1406   1.110       .  S
C1402      H1407   1.108       .  S
C1402      H1408   1.111       .  S
C1409      C1410   1.408       .  A
C1409      C1414   1.400       .  A
C1409      H1416   1.082       .  S
C1410      C1411   1.420       .  A
C1411      C1418   1.507       .  S
C1411      C1412   1.406       .  A
C1412      C1413   1.401       .  A
C1412      H1417   1.083       .  S
C1413      C1414   1.408       .  A
C1414      C1415   1.507       .  S
C1415      H1419   1.111       .  S
C1415      H1420   1.108       .  S
C1415      H1421   1.107       .  S
C1418      H1422   1.110       .  S
C1418      H1423   1.109       .  S
C1418      H1424   1.111       .  S
C1425      C1426   1.406       .  A
C1425      C1430   1.399       .  A
C1425      H1432   1.082       .  S
C1426      C1427   1.421       .  A
C1427      C1434   1.507       .  S
C1427      C1428   1.404       .  A
C1428      C1429   1.399       .  A
C1428      H1433   1.084       .  S
C1429      C1430   1.411       .  A
C1430      C1431   1.508       .  S
C1431      H1435   1.111       .  S
C1431      H1436   1.110       .  S
C1431      H1437   1.109       .  S
C1434      H1438   1.109       .  S
C1434      H1439   1.110       .  S
C1434      H1440   1.111       .  S
C1441      C1442   1.398       .  A
C1441      C1446   1.402       .  A
C1441      H1448   1.083       .  S
C1442      C1443   1.409       .  A
C1443      C1450   1.506       .  S
C1443      C1444   1.404       .  A
C1444      C1445   1.411       .  A
C1444      H1449   1.083       .  S
C1445      C1446   1.422       .  A
C1446      C1447   1.504       .  S
C1447      H1451   1.111       .  S
C1447      H1452   1.104       .  S
C1447      H1453   1.110       .  S
C1450      H1454   1.110       .  S
C1450      H1455   1.108       .  S
C1450      H1456   1.110       .  S
C1457      C1458   1.424       .  A
C1457      C1462   1.402       .  A
C1457      H1464   1.076       .  S
C1458      C1459   1.444       .  A
C1459      C1460   1.412       .  A
C1460      C1461   1.397       .  A
C1460      H1465   1.084       .  S
C1461      C1462   1.399       .  A
C1462      C1463   1.507       .  S
C1463      H1467   1.111       .  S
C1463      H1469   1.110       .  S
C1466      H1470   1.097       .  S
C1466      H1472   1.112       .  S
C1473      C1474   1.421       .  A
C1473      C1478   1.405       .  A
C1473      H1480   1.082       .  S
C1475      C1482   1.515       .  S
C1475      C1476   1.407       .  A
C1476      H1481   1.084       .  S
C1477      C1478   1.410       .  A
C1478      C1479   1.507       .  S
C1479      H1483   1.111       .  S
C1479      H1485   1.110       .  S
C1482      H1486   1.110       .  S
C1482      H1488   1.112       .  S
C1489      C1490   1.424       .  A
C1489      C1494   1.405       .  A
C1489      H1496   1.078       .  S
C1490      C1491   1.438       .  A
C1491      C1498   1.507       .  S
C1491      C1492   1.410       .  A
C1492      C1493   1.397       .  A
C1492      H1497   1.084       .  S
C1493      C1494   1.406       .  A
C1494      C1495   1.509       .  S
C1495      H1499   1.111       .  S
C1495      H1500   1.110       .  S
C1495      H1501   1.107       .  S
C1498      H1502   1.104       .  S
C1498      H1503   1.100       .  S
C1498      H1504   1.111       .  S
C1505      C1506   1.396       .  A
C1505      C1510   1.409       .  A
C1505      H1512   1.086       .  S
C1506      C1507   1.400       .  A
C1507      C1514   1.507       .  S
C1507      C1508   1.402       .  A
C1508      C1509   1.422       .  A
C1508      H1513   1.077       .  S
C1509      C1510   1.441       .  A
C1510      C1511   1.513       .  S
C1511      H1515   1.111       .  S
C1511      H1516   1.097   1_565  S
C1511      H1517   1.110   1_565  S
C1514      H1518   1.111       .  S
C1514      H1519   1.111       .  S
C1514      H1520   1.111       .  S
C1521      C2978   1.588       .  S
C1521      C2994   1.576       .  S
C1521      C3010   1.586       .  S
C1521      C2269   1.570       .  S
C1522      C1523   1.408   1_556  A
C1522      C2202   1.476       .  S
C1523      C2173   1.479       .  S
C1524      C1525   1.403       .  A
C1524      H1529   1.084       .  S
C1525      C1526   1.411   1_554  A
C1525      C2154   1.484       .  S
C1526      C1527   1.402       .  A
C1526      C2189   1.479       .  S
C1527      H1528   1.084       .  S
C1530      C2090   1.572   1_565  S
C1530      C2106   1.583       .  S
C1530      C2122   1.595   1_565  S
C1530      C2901   1.593       .  S
C1531      C2061   1.580       .  S
C1532      C1533   1.406   1_556  A
C1532      C1537   1.400       .  A
C1532      C2010   1.471       .  S
C1533      C1534   1.398       .  A
C1533      C1981   1.481       .  S
C1534      C2295   1.402       .  A
C1534      H1539   1.084       .  S
C1535      C2294   1.402   1_545  A
C1535      C1536   1.412   1_554  A
C1535      C1962   1.473       .  S
C1536      C2297   1.399       .  A
C1536      C1994   1.481       .  S
C1537      C2296   1.399       .  A
C1537      H1538   1.084       .  S
C1540      C1577   1.467       .  S
C1540      C2205   1.493       .  S
C1540      N1558   1.353       .  A
N1541      N1558   1.323       .  A
N1541      N1563   1.316       .  A
N1541     Co1578   2.087       .  S
C1542      C1580   1.462       .  S
C1542      H1587   1.082       .  S
C1542      N1567   1.344       .  A
H1543      C1584   1.080       .  S
C1544      C1548   1.463       .  S
C1544      H1573   1.081       .  S
C1544      N1568   1.340       .  A
Co1545     N1563   2.074       .  S
Co1545     N1553   2.083       .  S
Co1545     N1585   2.092       .  S
Co1545     N1561   2.089       .  S
Co1545    Cl1589   2.454       .  S
N1546      C1584   1.336       .  A
N1546      N1553   1.316       .  A
N1546     Co1547   2.065       .  S
Co1547     N1550   2.086       .  S
Co1547     N1567   2.100       .  S
Co1547     N1554   2.080       .  S
Co1547    Cl1589   2.452       .  S
C1548      C2186   1.487       .  S
C1548      N1586   1.350       .  A
N1549      N1556   1.316       .  A
N1549      N1579   1.325       .  A
N1549     Co1582   2.089       .  S
N1550      N1568   1.317       .  A
N1550      N1586   1.324       .  A
N1551      C1580   1.348       .  A
N1551      N1561   1.325       .  A
H1552      C1577   1.076       .  S
N1553      N1574   1.324       .  A
N1554      N1572   1.323       .  A
N1554      N1559   1.324       .  A
C1555      C1583   1.460       .  S
C1555      C2058   1.474       .  S
C1555      N1559   1.347       .  A
N1556      C1571   1.338       .  A
N1556     Co1578   2.078       .  S
C1557      C1560   1.469       .  S
C1557      H1591   1.077       .  S
C1557      N1585   1.344       .  A
C1560      C2077   1.497       .  S
C1560      N1581   1.354       .  A
N1561      N1567   1.323       .  A
N1562      C1588   1.345       .  A
N1562      N1564   1.322       .  A
N1562     Co1578   2.102       .  S
N1563      C1577   1.338       .  A
N1564      N1592   1.325       .  A
N1564     Co1582   2.092       .  S
H1565      C1588   1.080       .  S
H1566      C1583   1.082       .  S
N1568     Co1582   2.077       .  S
N1569      N1581   1.323       .  A
N1569      N1585   1.321       .  A
N1569     Co1578   2.094       .  S
C1570      C1584   1.459       .  S
C1570      C2013   1.483       .  S
C1570      N1574   1.351       .  A
C1571      C1590   1.467       .  S
C1571      H1575   1.077       .  S
N1572      C1583   1.343       .  A
N1572     Co1582   2.098       .  S
C1576      C1588   1.467       .  S
C1576      C2125   1.493       .  S
C1576      N1592   1.351       .  A
Co1578    Cl1589   2.451       .  S
N1579      C1590   1.354       .  A
C1580      C2138   1.478       .  S
Co1582    Cl1589   2.455       .  S
C1590      C1997   1.496       .  S
C1593      C1630   1.459       .  S
C1593      C2266   1.474       .  S
C1593      N1611   1.350       .  A
N1594      N1611   1.325       .  A
N1594      N1616   1.321       .  A
N1594     Co1631   2.089       .  S
C1595      C1633   1.462       .  S
C1595      H1640   1.081       .  S
C1595      N1620   1.340       .  A
H1596      C1637   1.082       .  S
C1597      C1601   1.463       .  S
C1597      H1626   1.081       .  S
C1597      N1621   1.341       .  A
Co1598     N1616   2.090       .  S
Co1598     N1606   2.076       .  S
Co1598     N1638   2.064       .  S
Co1598     N1614   2.090       .  S
Co1598    Cl1642   2.448       .  S
N1599      C1637   1.340       .  A
N1599      N1606   1.320       .  A
N1599     Co1600   2.087       .  S
Co1600     N1603   2.092       .  S
Co1600     N1620   2.081       .  S
Co1600     N1607   2.082       .  S
Co1600    Cl1642   2.452       .  S
C1601      C2253   1.484       .  S
C1601      N1639   1.353       .  A
N1602      N1609   1.320       .  A
N1602      N1632   1.324       .  A
N1602     Co1635   2.076       .  S
N1603      N1621   1.321       .  A
N1603      N1639   1.325       .  A
N1604      C1633   1.352       .  A
N1604      N1614   1.326       .  A
H1605      C1630   1.083       .  S
N1606      N1627   1.323       .  A
N1607      N1625   1.317       .  A
N1607      N1612   1.323       .  A
C1608      C1636   1.460       .  S
C1608      C1965   1.484       .  S
C1608      N1612   1.350       .  A
N1609      C1624   1.341       .  A
N1609     Co1631   2.096       .  S
C1610      C1613   1.457       .  S
C1610      H1644   1.080       .  S
C1610      N1638   1.336       .  A
C1613      C1978   1.481       .  S
C1613      N1634   1.354       .  A
N1614      N1620   1.318       .  A
N1615      C1641   1.336       .  A
N1615      N1617   1.317       .  A
N1615     Co1631   2.069       .  S
N1616      C1630   1.341       .  A
N1617      N1645   1.326       .  A
N1617     Co1635   2.094       .  S
H1618      C1641   1.080       .  S
H1619      C1636   1.081       .  S
N1621     Co1635   2.090       .  S
N1622      N1634   1.326       .  A
N1622      N1638   1.316       .  A
N1622     Co1631   2.092       .  S
C1623      C1637   1.459       .  S
C1623      C1933   1.467       .  S
C1623      N1627   1.347       .  A
C1624      C1643   1.467       .  S
C1624      H1628   1.080       .  S
N1625      C1636   1.335       .  A
N1625     Co1635   2.064       .  S
C1629      C1641   1.462       .  S
C1629      C2170   1.493       .  S
C1629      N1645   1.354       .  A
Co1631    Cl1642   2.449       .  S
N1632      C1643   1.349       .  A
C1633      C2157   1.485       .  S
Co1635    Cl1642   2.450       .  S
C1643      C1949   1.483       .  S
C1646      C2045   1.488       .  S
C1646      N1664   1.351   1_455  A
N1647      N1664   1.324       .  A
N1647     Co1684   2.081       .  S
C1648      C1686   1.461       .  S
C1648      H1693   1.076       .  S
C1648      N1673   1.334       .  A
H1649      C1690   1.083       .  S
C1650      C1654   1.461   1_655  S
C1650      H1679   1.082       .  S
C1650      N1674   1.342       .  A
Co1651     N1669   2.098       .  S
Co1651     N1659   2.090       .  S
Co1651     N1691   2.080       .  S
Co1651     N1667   2.096       .  S
N1652      C1690   1.341       .  A
N1652      N2419   1.321   1_545  A
N1652     Co1653   2.086       .  S
Co1653     N1656   2.076       .  S
Co1653     N1673   2.068       .  S
Co1653     N1660   2.081       .  S
C1654      C2029   1.470       .  S
N1655      N2422   1.319   1_545  A
N1655      N1685   1.324       .  A
N1655     Co1688   2.089       .  S
N1656      N1692   1.323       .  A
N1657      C2446   1.357       .  A
N1657      N1667   1.327       .  A
H1658      C1683   1.079       .  S
N1659      N2412   1.321       .  A
N1659      N1680   1.324       .  A
N1660      N1665   1.322       .  A
C1661      C1898   1.485       .  S
C1661      N1665   1.349       .  A
N1662      C1677   1.340       .  A
N1662      N2415   1.319       .  A
N1662     Co1684   2.090       .  S
C1663      C1666   1.464       .  S
C1663      H1697   1.081       .  S
C1663      N1691   1.341       .  A
C1666      C1917   1.487       .  S
N1667      N2433   1.316       .  A
N1668      C1694   1.338       .  A
N1668      N2430   1.316       .  A
N1668     Co1684   2.069       .  S
N1669      C1683   1.342       .  A
N1670      N2428   1.316   1_545  A
N1670      N1698   1.324       .  A
N1670     Co1688   2.091       .  S
H1671      C1694   1.077       .  S
H1672      C1689   1.080       .  S
N1673      N2427   1.316   1_545  A
N1674     Co1688   2.093       .  S
N1675      N1687   1.323       .  A
N1675     Co1684   2.084       .  S
C1676      C1690   1.458       .  S
C1676      C2109   1.473       .  S
C1676      N2440   1.350   1_545  A
C1677      C2456   1.468       .  S
C1677      H1681   1.081       .  S
N1678      C1689   1.340       .  A
N1678     Co1688   2.074       .  S
N1680      C2436   1.350       .  A
C1682      C2454   1.462       .  S
C1682      C2642   1.488       .  S
C1682      N1698   1.354   1_565  A
Co1684    Cl2455   2.446   1_655  S
N1685      C1696   1.354   1_545  A
C1686      C2626   1.493       .  S
C1686      N2417   1.357   1_545  A
Co1688    Cl1695   2.453   1_645  S
C1694      C2442   1.462       .  S
Cl1695    Co2444   2.447   1_455  S
C1696      C2437   1.468       .  S
C1696      C2093   1.495       .  S
C1699      C2496   1.462   1_545  S
C1699      C2237   1.489       .  S
C1699      N1717   1.352       .  A
N1700      N1717   1.326       .  A
N1700      N2482   1.321   1_545  A
N1700     Co1737   2.094       .  S
C1701      H1746   1.077       .  S
C1701      N1726   1.341       .  A
H1702      C1743   1.082       .  S
C1703      C1707   1.461       .  S
C1703      H1732   1.082       .  S
C1703      N1727   1.343       .  A
Co1704     N1722   2.085       .  S
Co1704     N1712   2.078       .  S
Co1704     N1744   2.064       .  S
Co1704     N1720   2.075       .  S
N1705      C1743   1.342       .  A
N1705     Co1706   2.094       .  S
Co1706     N1709   2.088       .  S
Co1706     N1726   2.079       .  S
Co1706     N1713   2.080       .  S
Co1706    Cl2508   2.453       .  S
C1707      C2221   1.477       .  S
C1707      N2505   1.349   1_545  A
N1708      N1738   1.325       .  A
N1708     Co1741   2.086       .  S
N1709      N2487   1.323       .  A
N1709      N1745   1.324       .  A
N1710      C1739   1.349       .  A
N1710      N1720   1.321       .  A
H1711      C1736   1.080       .  S
N1712      N1733   1.324       .  A
N1713      N2491   1.317       .  A
N1713      N1718   1.322       .  A
C1714      C1742   1.463       .  S
C1714      C2613   1.488   1_545  S
C1714      N2478   1.350   1_545  A
N1715      C1730   1.342       .  A
N1715     Co1737   2.100       .  S
C1716      C2479   1.456       .  S
C1716      H1750   1.082       .  S
C1716      N1744   1.334       .  A
N1718      C2474   1.350       .  A
C1719      C2476   1.456       .  S
C1719      C2594   1.483       .  S
C1719      N1740   1.354   1_565  A
N1721      C1747   1.337       .  A
N1721     Co1737   2.074       .  S
N1722      C1736   1.340       .  A
N1722      N2460   1.321       .  A
N1723      N1751   1.326       .  A
N1723     Co1741   2.090       .  S
H1724      C1747   1.080       .  S
H1725      C1742   1.081       .  S
N1727      N2469   1.323   1_545  A
N1727     Co1741   2.098       .  S
N1728      N1740   1.327       .  A
N1728      N2504   1.317   1_545  A
N1728     Co1737   2.092       .  S
C1729      C1743   1.460       .  S
C1729      C1770   1.473   1_655  S
C1730      H1734   1.081       .  S
N1731      C1742   1.338       .  A
N1731      N2473   1.317   1_545  A
N1731     Co1741   2.071       .  S
C1735      C1747   1.463       .  S
C1735      C1802   1.493       .  S
C1736      C2459   1.462       .  S
N1738      C1749   1.350   1_655  A
C1739      C1818   1.484       .  S
Co1741    Cl1748   2.452       .  S
N1744      N2488   1.317       .  A
N1745      C2467   1.349       .  A
Cl1748    Co2466   2.453   1_545  S
C1749      C1786   1.492       .  S
C1752      C1753   1.415       .  A
C1752      C1757   1.403       .  A
C1752      C1914   1.487       .  S
C1753      C1754   1.402       .  A
C1753      C1821   1.477       .  S
C1754      C1755   1.396       .  A
C1754      H1759   1.085       .  S
C1755      C1756   1.404       .  A
C1755      C1805   1.476       .  S
C1756      C1757   1.399       .  A
C1756      C1901   1.473       .  S
C1757      H1758   1.086       .  S
C1760      C1761   1.409       .  A
C1760      C1765   1.400       .  A
C1760      C1850   1.475       .  S
C1761      C1762   1.401       .  A
C1761      C1885   1.481       .  S
C1762      C1763   1.400       .  A
C1762      H1767   1.084       .  S
C1763      C1764   1.409       .  A
C1763      C1869   1.478       .  S
C1764      C1765   1.401       .  A
C1764      C1837   1.478       .  S
C1765      H1766   1.084       .  S
C1768      C1773   1.592       .  S
C1768      C1789   1.594       .  S
C1768      C1930   1.569       .  S
C1769      C1774   1.405       .  A
C1769      H1776   1.085       .  S
C1770      C1771   1.405       .  A
C1771      C1778   1.508       .  S
C1771      C1772   1.405       .  A
C1772      H1777   1.080       .  S
C1773      C1774   1.446       .  A
C1774      C1775   1.511       .  S
C1775      H1779   1.104       .  S
C1775      H1781   1.100       .  S
C1778      H1782   1.110   1_455  S
C1778      H1784   1.111       .  S
C1785      C1790   1.409       .  A
C1785      H1792   1.085       .  S
C1786      C1787   1.410   1_455  A
C1787      C1794   1.507       .  S
C1787      C1788   1.406       .  A
C1788      H1793   1.083       .  S
C1789      C1790   1.453       .  A
C1790      C1791   1.514       .  S
C1791      H1795   1.111       .  S
C1791      H1796   1.106       .  S
C1791      H1797   1.099       .  S
C1794      H1798   1.110       .  S
C1794      H1799   1.110       .  S
C1794      H1800   1.111       .  S
C1801      C1802   1.408       .  A
C1801      C1806   1.399       .  A
C1801      H1808   1.079       .  S
C1803      C1810   1.507       .  S
C1803      C1804   1.407       .  A
C1804      H1809   1.084       .  S
C1805      C1806   1.409       .  A
C1806      C1807   1.509       .  S
C1807      H1811   1.110       .  S
C1807      H1812   1.110       .  S
C1807      H1813   1.108       .  S
C1810      H1814   1.110       .  S
C1810      H1815   1.110       .  S
C1810      H1816   1.111       .  S
C1817      C1818   1.405       .  A
C1817      C1822   1.399       .  A
C1817      H1824   1.084       .  S
C1819      C1826   1.501       .  S
C1819      C1820   1.403       .  A
C1820      H1825   1.084       .  S
C1821      C1822   1.414       .  A
C1822      C1823   1.512       .  S
C1823      H1827   1.111       .  S
C1823      H1828   1.107       .  S
C1823      H1829   1.109       .  S
C1826      H1830   1.106       .  S
C1826      H1831   1.110       .  S
C1826      H1832   1.111       .  S
C1833      C1834   1.404       .  A
C1833      C1838   1.395       .  A
C1833      H2600   1.083       .  S
C1834      C1835   1.417       .  A
C1834      C2479   1.483       .  S
C1835      C1842   1.507       .  S
C1835      C1836   1.408       .  A
C1836      C1837   1.404       .  A
C1836      H1841   1.085       .  S
C1837      C1838   1.413       .  A
C1838      C1839   1.510       .  S
C1839      H2603   1.111       .  S
C1839      H1844   1.107       .  S
C1839      H2605   1.110       .  S
H1840      C2593   1.083       .  S
C1842      H1846   1.110       .  S
C1842      H2607   1.109       .  S
C1842      H1848   1.111       .  S
H1843      C2599   1.111       .  S
H1845      C2599   1.110       .  S
H1847      C2602   1.109       .  S
C1849      C1850   1.398       .  A
C1849      C1854   1.401       .  A
C1849      H1856   1.085       .  S
C1850      C2611   1.408       .  A
C1851      C1858   1.506       .  S
C1851      C2610   1.408   1_545  A
C1851      C1852   1.402       .  A
C1852      C2613   1.408   1_545  A
C1852      H1857   1.081       .  S
C1853      C2612   1.408       .  A
C1853      C1854   1.420       .  A
C1853      C2474   1.488       .  S
C1854      C1855   1.506       .  S
C1855      H1859   1.111       .  S
C1855      H1860   1.103       .  S
C1855      H1861   1.110       .  S
C1858      H1862   1.107       .  S
C1858      H1863   1.110       .  S
C1858      H1864   1.111       .  S
C1865      C1866   1.409       .  A
C1865      C1870   1.405       .  A
C1865      H1872   1.085       .  S
C1866      C2627   1.424       .  A
C1866      C2446   1.493       .  S
C1867      C1874   1.505       .  S
C1867      C2626   1.424       .  A
C1867      C1868   1.399       .  A
C1868      C2629   1.397       .  A
C1868      H1873   1.086       .  S
C1869      C2628   1.397       .  A
C1869      C1870   1.411       .  A
C1870      C1871   1.505       .  S
C1871      H1875   1.110       .  S
C1871      H1876   1.104       .  S
C1871      H2637   1.110       .  S
C1874      H2638   1.110       .  S
C1874      H1879   1.104       .  S
C1874      H1880   1.111       .  S
H1877      C2631   1.110       .  S
H1878      C2634   1.110       .  S
C1881      C2642   1.403   1_545  A
C1881      C1886   1.397       .  A
C1881      H1888   1.084       .  S
C1882      C2641   1.403       .  A
C1882      C1883   1.422       .  A
C1882      C2442   1.488       .  S
C1883      C1890   1.505       .  S
C1883      C1884   1.406       .  A
C1884      C1885   1.400       .  A
C1884      H1889   1.084       .  S
C1885      C2646   1.414       .  A
C1886      C1887   1.509       .  S
C1886      C2645   1.414       .  A
C1887      H1891   1.111       .  S
C1887      H2652   1.110       .  S
C1887      H1893   1.108       .  S
C1890      H1894   1.106       .  S
C1890      H1895   1.110       .  S
C1890      H1896   1.111       .  S
H1892      C2647   1.110       .  S
C1897      C1902   1.401       .  A
C1897      H1904   1.081       .  S
C1898      C1899   1.420       .  A
C1899      C1906   1.505       .  S
C1899      C1900   1.402       .  A
C1900      C1901   1.397       .  A
C1900      H1905   1.082       .  S
C1902      C1903   1.508       .  S
C1903      H1907   1.111       .  S
C1903      H1908   1.110       .  S
C1903      H1909   1.109       .  S
C1906      H1910   1.110       .  S
C1906      H1911   1.109       .  S
C1906      H1912   1.111       .  S
C1913      C1918   1.402       .  A
C1913      H1920   1.084       .  S
C1914      C1915   1.412       .  A
C1915      C1922   1.504       .  S
C1915      C1916   1.405       .  A
C1916      C1917   1.406       .  A
C1916      H1921   1.082       .  S
C1918      C1919   1.508       .  S
C1919      H1923   1.111       .  S
C1919      H1924   1.107       .  S
C1919      H1925   1.110       .  S
C1922      H1926   1.106       .  S
C1922      H1927   1.110       .  S
C1922      H1928   1.111       .  S
C1929      C1930   1.424       .  A
C1929      C1934   1.400       .  A
C1929      H1936   1.083       .  S
C1930      C1931   1.443       .  A
C1931      C1938   1.512       .  S
C1931      C1932   1.406       .  A
C1932      C1933   1.394       .  A
C1932      H1937   1.086       .  S
C1933      C1934   1.398       .  A
C1934      C1935   1.507       .  S
C1935      H1939   1.111       .  S
C1935      H1940   1.110       .  S
C1935      H1941   1.110       .  S
C1938      H1942   1.093       .  S
C1938      H1943   1.110       .  S
C1938      H1944   1.111       .  S
C1945      C1946   1.423       .  A
C1945      C1950   1.401       .  A
C1945      H1952   1.078       .  S
C1946      C1947   1.435       .  A
C1947      C1954   1.509       .  S
C1947      C1948   1.410       .  A
C1948      C1949   1.402       .  A
C1948      H1953   1.084       .  S
C1949      C1950   1.405       .  A
C1950      C1951   1.510       .  S
C1951      H1955   1.111       .  S
C1951      H1956   1.111       .  S
C1951      H1957   1.105       .  S
C1954      H1958   1.107       .  S
C1954      H1959   1.099   1_655  S
C1954      H1960   1.111       .  S
C1961      C1962   1.401       .  A
C1961      C1966   1.401       .  A
C1961      H1968   1.086       .  S
C1962      C1963   1.408       .  A
C1963      C1970   1.506       .  S
C1963      C1964   1.399       .  A
C1964      C1965   1.406       .  A
C1964      H1969   1.081       .  S
C1965      C1966   1.419       .  A
C1966      C1967   1.507       .  S
C1967      H1971   1.111       .  S
C1967      H1972   1.105       .  S
C1967      H1973   1.110       .  S
C1970      H1974   1.104       .  S
C1970      H1975   1.110       .  S
C1970      H1976   1.111       .  S
C1977      C1978   1.402       .  A
C1977      C1982   1.400       .  A
C1977      H1984   1.085       .  S
C1978      C1979   1.420       .  A
C1979      C1986   1.508       .  S
C1979      C1980   1.403       .  A
C1980      C1981   1.400       .  A
C1980      H1985   1.083       .  S
C1981      C1982   1.413       .  A
C1982      C1983   1.508       .  S
C1983      H1987   1.111       .  S
C1983      H1988   1.108       .  S
C1983      H1989   1.110       .  S
C1986      H1990   1.110       .  S
C1986      H1991   1.107       .  S
C1986      H1992   1.111       .  S
C1993      C1994   1.399       .  A
C1993      C1998   1.402       .  A
C1993      H2000   1.084       .  S
C1994      C1995   1.408       .  A
C1995      C2002   1.505       .  S
C1995      C1996   1.407       .  A
C1996      C1997   1.411       .  A
C1996      H2001   1.084       .  S
C1997      C1998   1.422       .  A
C1998      C1999   1.505       .  S
C1999      H2003   1.111       .  S
C1999      H2004   1.109       .  S
C1999      H2005   1.110       .  S
C2002      H2006   1.107       .  S
C2002      H2007   1.110       .  S
C2002      H2008   1.111       .  S
C2009      C2010   1.398       .  A
C2009      C2014   1.403       .  A
C2009      H2016   1.085       .  S
C2010      C2011   1.409       .  A
C2011      C2018   1.509       .  S
C2011      C2012   1.398       .  A
C2012      C2013   1.406       .  A
C2012      H2017   1.082       .  S
C2013      C2014   1.419       .  A
C2014      C2015   1.505       .  S
C2015      H2019   1.111       .  S
C2015      H2020   1.109       .  S
C2015      H2021   1.110       .  S
C2018      H2022   1.109       .  S
C2018      H2023   1.109       .  S
C2018      H2024   1.111       .  S
C2025      C2026   1.419       .  A
C2025      C2030   1.402       .  A
C2025      H2032   1.075       .  S
C2027      C2034   1.515       .  S
C2027      C2028   1.407       .  A
C2028      H2033   1.084       .  S
C2029      C2030   1.404       .  A
C2030      C2031   1.508   1_455  S
C2031      H2035   1.111       .  S
C2031      H2036   1.110       .  S
C2031      H2037   1.110   1_655  S
C2034      H2038   1.107       .  S
C2034      H2039   1.107       .  S
C2034      H2040   1.111       .  S
C2041      C2046   1.405       .  A
C2041      H2048   1.076       .  S
C2042      C2043   1.438       .  A
C2043      C2050   1.504       .  S
C2043      C2044   1.407       .  A
C2044      C2045   1.399   1_655  A
C2044      H2049   1.085       .  S
C2046      C2047   1.510       .  S
C2047      H2051   1.111       .  S
C2047      H2052   1.110       .  S
C2047      H2053   1.106       .  S
C2050      H2054   1.086       .  S
C2050      H2055   1.111       .  S
C2050      H2056   1.111       .  S
C2057      C2058   1.388       .  A
C2057      C2062   1.402       .  A
C2057      H2064   1.085       .  S
C2058      C2059   1.406       .  A
C2059      C2066   1.507       .  S
C2059      C2060   1.407       .  A
C2060      C2061   1.422       .  A
C2060      H2065   1.076       .  S
C2061      C2062   1.444       .  A
C2062      C2063   1.511       .  S
C2063      H2067   1.110       .  S
C2063      H2068   1.111       .  S
C2063      H2069   1.096       .  S
C2066      H2070   1.110       .  S
C2066      H2071   1.110       .  S
C2066      H2072   1.111       .  S
C2073      C2074   1.422       .  A
C2073      C2078   1.408       .  A
C2073      H2080   1.083       .  S
C2074      C2075   1.453       .  A
C2075      C2082   1.521       .  S
C2075      C2076   1.408       .  A
C2076      C2077   1.394       .  A
C2076      H2081   1.085       .  S
C2077      C2078   1.412       .  A
C2078      C2079   1.505       .  S
C2079      H2083   1.111       .  S
C2079      H2084   1.110       .  S
C2079      H2085   1.108       .  S
C2082      H2086   1.105       .  S
C2082      H2087   1.101       .  S
C2082      H2088   1.111       .  S
C2089      C2850   1.420       .  A
C2089      C2094   1.405       .  A
C2089      H2096   1.076       .  S
C2090      C2849   1.420   1_545  A
C2090      C2091   1.436       .  A
C2091      C2098   1.513       .  S
C2091      C2092   1.408       .  A
C2092      C2093   1.403   1_545  A
C2092      H2097   1.084       .  S
C2093      C2854   1.412       .  A
C2094      C2095   1.508       .  S
C2094      C2853   1.412       .  A
C2095      H2099   1.111       .  S
C2095      H2100   1.110       .  S
C2095      H2101   1.107       .  S
C2098      H2102   1.107       .  S
C2098      H2103   1.105       .  S
C2098      H2104   1.111       .  S
C2105      C2106   1.426       .  A
C2105      C2110   1.401   1_565  A
C2105      H2112   1.083       .  S
C2106      C2107   1.448       .  A
C2107      C2114   1.514       .  S
C2107      C2108   1.408   1_565  A
C2108      C2109   1.393       .  A
C2108      H2113   1.086       .  S
C2109      C2110   1.398       .  A
C2110      C2111   1.506       .  S
C2111      H2115   1.111   1_545  S
C2111      H2876   1.110   1_545  S
C2111      H2117   1.110       .  S
C2114      H2878   1.093       .  S
C2114      H2119   1.110   1_565  S
C2114      H2120   1.112       .  S
H2116      C2871   1.110       .  S
H2118      C2874   1.093       .  S
C2121      C2122   1.426       .  A
C2121      C2126   1.406       .  A
C2121      H2128   1.075       .  S
C2122      C2123   1.442       .  A
C2123      C2130   1.513       .  S
C2123      C2124   1.413       .  A
C2124      C2125   1.399       .  A
C2124      H2129   1.084       .  S
C2125      C2126   1.407       .  A
C2126      C2127   1.510       .  S
C2127      H2131   1.111       .  S
C2127      H2132   1.110       .  S
C2127      H2133   1.109       .  S
C2130      H2134   1.107       .  S
C2130      H2135   1.104   1_545  S
C2130      H2136   1.111       .  S
C2137      C2138   1.389       .  A
C2137      C2142   1.408       .  A
C2137      H2144   1.085       .  S
C2138      C2139   1.404       .  A
C2139      C2146   1.507       .  S
C2139      C2140   1.407       .  A
C2140      C2141   1.422       .  A
C2140      H2145   1.078       .  S
C2141      C2290   1.593       .  S
C2141      C2142   1.446       .  A
C2142      C2143   1.511       .  S
C2143      H2147   1.111       .  S
C2143      H2148   1.099       .  S
C2143      H2149   1.105       .  S
C2146      H2150   1.110       .  S
C2146      H2151   1.110       .  S
C2146      H2152   1.111       .  S
C2153      C2154   1.399       .  A
C2153      C2158   1.402       .  A
C2153      H2160   1.085       .  S
C2154      C2155   1.415       .  A
C2155      C2162   1.507       .  S
C2155      C2156   1.401       .  A
C2156      C2157   1.404       .  A
C2156      H2161   1.085       .  S
C2157      C2158   1.419       .  A
C2158      C2159   1.504       .  S
C2159      H2163   1.111       .  S
C2159      H2164   1.109       .  S
C2159      H2165   1.106       .  S
C2162      H2166   1.110       .  S
C2162      H2167   1.108       .  S
C2162      H2168   1.111       .  S
C2169      C2170   1.408       .  A
C2169      C2174   1.400       .  A
C2169      H2176   1.082       .  S
C2170      C2171   1.420       .  A
C2171      C2178   1.507       .  S
C2171      C2172   1.406       .  A
C2172      C2173   1.401       .  A
C2172      H2177   1.083       .  S
C2173      C2174   1.408       .  A
C2174      C2175   1.507       .  S
C2175      H2179   1.111       .  S
C2175      H2180   1.108       .  S
C2175      H2181   1.108       .  S
C2178      H2182   1.110       .  S
C2178      H2183   1.109       .  S
C2178      H2184   1.111       .  S
C2185      C2186   1.406       .  A
C2185      C2190   1.400       .  A
C2185      H2192   1.082       .  S
C2186      C2187   1.420       .  A
C2187      C2194   1.507       .  S
C2187      C2188   1.404       .  A
C2188      C2189   1.400       .  A
C2188      H2193   1.084       .  S
C2189      C2190   1.411       .  A
C2190      C2191   1.508       .  S
C2191      H2195   1.111       .  S
C2191      H2196   1.110       .  S
C2191      H2197   1.109       .  S
C2194      H2198   1.109       .  S
C2194      H2199   1.111       .  S
C2194      H2200   1.111       .  S
C2201      C2202   1.398       .  A
C2201      C2206   1.402       .  A
C2201      H2208   1.084       .  S
C2202      C2203   1.409       .  A
C2203      C2210   1.506       .  S
C2203      C2204   1.403       .  A
C2204      C2205   1.410       .  A
C2204      H2209   1.083       .  S
C2205      C2206   1.422       .  A
C2206      C2207   1.504       .  S
C2207      H2211   1.111       .  S
C2207      H2212   1.104       .  S
C2207      H2213   1.110       .  S
C2210      H2214   1.110       .  S
C2210      H2215   1.108       .  S
C2210      H2216   1.110       .  S
C2217      C2218   1.423   1_545  A
C2217      C2222   1.401       .  A
C2217      H2224   1.075       .  S
C2218      C2281   1.588       .  S
C2218      C2219   1.444       .  A
C2219      C2986   1.514       .  S
C2219      C2220   1.412       .  A
C2220      C2221   1.397   1_565  A
C2220      H2225   1.084       .  S
C2221      C2222   1.398       .  A
C2222      C2223   1.507       .  S
C2223      H2227   1.111       .  S
C2223      H2988   1.110   1_545  S
C2223      H2229   1.110       .  S
C2226      C2979   1.514       .  S
C2226      H2230   1.097       .  S
C2226      H2991   1.110       .  S
C2226      H2232   1.111       .  S
H2228      C2983   1.110       .  S
H2231      C2986   1.110       .  S
C2233      C2234   1.420   1_545  A
C2233      C2238   1.404       .  A
C2233      H2240   1.082       .  S
C2234      C2281   1.576       .  S
C2234      C2995   1.447       .  A
C2235      C2242   1.515       .  S
C2235      C2994   1.447       .  A
C2235      C2236   1.408       .  A
C2236      C2997   1.396       .  A
C2236      H2241   1.084       .  S
C2237      C2996   1.396   1_545  A
C2237      C2238   1.409       .  A
C2238      C2239   1.507       .  S
C2239      H2243   1.111       .  S
C2239      H3004   1.110       .  S
C2239      H2245   1.110       .  S
C2242      H2246   1.110       .  S
C2242      H3007   1.093       .  S
C2242      H2248   1.112       .  S
H2244      C2999   1.110       .  S
H2247      C3002   1.093       .  S
C2249      C2250   1.425       .  A
C2249      C2254   1.405       .  A
C2249      H2256   1.078       .  S
C2250      C2281   1.586   1_545  S
C2250      C2251   1.438       .  A
C2251      C2258   1.507       .  S
C2251      C2252   1.409       .  A
C2252      C2253   1.397       .  A
C2252      H2257   1.084       .  S
C2253      C2254   1.406       .  A
C2254      C2255   1.509       .  S
C2255      H2259   1.111       .  S
C2255      H2260   1.110       .  S
C2255      H2261   1.107       .  S
C2258      H2262   1.104       .  S
C2258      H2263   1.100   1_545  S
C2258      H2264   1.111       .  S
C2265      C2266   1.396       .  A
C2265      C2270   1.409       .  A
C2265      H2272   1.086       .  S
C2266      C2267   1.400       .  A
C2267      C2274   1.507       .  S
C2267      C2268   1.402       .  A
C2268      C2269   1.421       .  A
C2268      H2273   1.078       .  S
C2269      C2270   1.441       .  A
C2270      C2271   1.513       .  S
C2271      H2275   1.111       .  S
C2271      H2276   1.096       .  S
C2271      H2277   1.110       .  S
C2274      H2278   1.110       .  S
C2274      H2279   1.110       .  S
C2274      H2280   1.111       .  S
C2281      C3029   1.570       .  S
C2282      C2283   1.408   1_556  A
C2282      C2962   1.476       .  S
C2283      C2933   1.479       .  S
C2284      C2285   1.403       .  A
C2284      H2289   1.084       .  S
C2285      C2286   1.411   1_554  A
C2285      C2914   1.484       .  S
C2286      C2287   1.402       .  A
C2286      C2949   1.479       .  S
C2287      H2288   1.084       .  S
C2290      C2850   1.572       .  S
C2290      C2866   1.583       .  S
C2290      C2882   1.595       .  S
C2291      C2821   1.580       .  S
C2292      C2293   1.406   1_556  A
C2292      C2297   1.400   1_565  A
C2292      C2770   1.471       .  S
C2293      C2294   1.398       .  A
C2293      C2741   1.481       .  S
C2294      H2299   1.084       .  S
C2295      C2296   1.412   1_554  A
C2295      C2722   1.473       .  S
C2296      C2754   1.481       .  S
C2297      H2298   1.084       .  S
C2300      C2337   1.467       .  S
C2300      C2965   1.493       .  S
C2300      N2318   1.353       .  A
N2301      N2318   1.323       .  A
N2301      N2323   1.316       .  A
N2301     Co2338   2.087       .  S
C2302      C2340   1.462       .  S
C2302      H2347   1.082       .  S
C2302      N2327   1.344       .  A
H2303      C2344   1.080       .  S
C2304      C2308   1.463       .  S
C2304      H2333   1.081       .  S
C2304      N2328   1.340       .  A
Co2305     N2323   2.073       .  S
Co2305     N2313   2.083       .  S
Co2305     N2345   2.092       .  S
Co2305     N2321   2.089       .  S
Co2305    Cl2349   2.454       .  S
N2306      C2344   1.336       .  A
N2306      N2313   1.316       .  A
N2306     Co2307   2.065       .  S
Co2307     N2310   2.086       .  S
Co2307     N2327   2.100       .  S
Co2307     N2314   2.080       .  S
Co2307    Cl2349   2.452       .  S
C2308      C2946   1.487       .  S
C2308      N2346   1.350       .  A
N2309      N2316   1.316       .  A
N2309      N2339   1.325       .  A
N2309     Co2342   2.089       .  S
N2310      N2328   1.317       .  A
N2310      N2346   1.324       .  A
N2311      C2340   1.349       .  A
N2311      N2321   1.325       .  A
H2312      C2337   1.076       .  S
N2313      N2334   1.324       .  A
N2314      N2332   1.323       .  A
N2314      N2319   1.324       .  A
C2315      C2343   1.460       .  S
C2315      C2818   1.474       .  S
C2315      N2319   1.347       .  A
N2316      C2331   1.338       .  A
N2316     Co2338   2.078       .  S
C2317      C2320   1.469       .  S
C2317      H2351   1.077       .  S
C2317      N2345   1.344       .  A
C2320      C2837   1.497       .  S
C2320      N2341   1.354       .  A
N2321      N2327   1.323       .  A
N2322      C2348   1.345       .  A
N2322      N2324   1.322       .  A
N2322     Co2338   2.103       .  S
N2323      C2337   1.338       .  A
N2324      N2352   1.325       .  A
N2324     Co2342   2.092       .  S
H2325      C2348   1.080       .  S
H2326      C2343   1.082       .  S
N2328     Co2342   2.077       .  S
N2329      N2341   1.323       .  A
N2329      N2345   1.321       .  A
N2329     Co2338   2.094       .  S
C2330      C2344   1.459       .  S
C2330      C2773   1.483       .  S
C2330      N2334   1.351       .  A
C2331      C2350   1.467       .  S
C2331      H2335   1.077       .  S
N2332      C2343   1.343       .  A
N2332     Co2342   2.098       .  S
C2336      C2348   1.467       .  S
C2336      C2885   1.493       .  S
C2336      N2352   1.351       .  A
Co2338    Cl2349   2.451       .  S
N2339      C2350   1.354       .  A
C2340      C2898   1.478       .  S
Co2342    Cl2349   2.455       .  S
C2350      C2757   1.496       .  S
C2353      C2390   1.459       .  S
C2353      C3026   1.474       .  S
C2353      N2371   1.350       .  A
N2354      N2371   1.325       .  A
N2354      N2376   1.321       .  A
N2354     Co2391   2.089       .  S
C2355      C2393   1.462       .  S
C2355      H2400   1.081       .  S
C2355      N2380   1.340       .  A
H2356      C2397   1.082       .  S
C2357      C2361   1.463       .  S
C2357      H2386   1.081       .  S
C2357      N2381   1.341       .  A
Co2358     N2376   2.090       .  S
Co2358     N2366   2.076       .  S
Co2358     N2398   2.064       .  S
Co2358     N2374   2.090       .  S
Co2358    Cl2402   2.448       .  S
N2359      C2397   1.340       .  A
N2359      N2366   1.320       .  A
N2359     Co2360   2.087       .  S
Co2360     N2363   2.092       .  S
Co2360     N2380   2.081       .  S
Co2360     N2367   2.082       .  S
Co2360    Cl2402   2.452       .  S
C2361      C3013   1.484       .  S
C2361      N2399   1.353       .  A
N2362      N2369   1.320       .  A
N2362      N2392   1.324       .  A
N2362     Co2395   2.076       .  S
N2363      N2381   1.321       .  A
N2363      N2399   1.325       .  A
N2364      C2393   1.352       .  A
N2364      N2374   1.326       .  A
H2365      C2390   1.083       .  S
N2366      N2387   1.323       .  A
N2367      N2385   1.317       .  A
N2367      N2372   1.323       .  A
C2368      C2396   1.460       .  S
C2368      C2725   1.484       .  S
C2368      N2372   1.350       .  A
N2369      C2384   1.341       .  A
N2369     Co2391   2.096       .  S
C2370      C2373   1.457       .  S
C2370      H2404   1.080       .  S
C2370      N2398   1.336       .  A
C2373      C2738   1.481       .  S
C2373      N2394   1.354       .  A
N2374      N2380   1.318       .  A
N2375      C2401   1.336       .  A
N2375      N2377   1.317       .  A
N2375     Co2391   2.069       .  S
N2376      C2390   1.341       .  A
N2377      N2405   1.326       .  A
N2377     Co2395   2.094       .  S
H2378      C2401   1.080       .  S
H2379      C2396   1.081       .  S
N2381     Co2395   2.090       .  S
N2382      N2394   1.326       .  A
N2382      N2398   1.316       .  A
N2382     Co2391   2.092       .  S
C2383      C2397   1.459       .  S
C2383      C2693   1.467       .  S
C2383      N2387   1.347       .  A
C2384      C2403   1.467       .  S
C2384      H2388   1.080       .  S
N2385      C2396   1.335       .  A
N2385     Co2395   2.064       .  S
C2389      C2401   1.462       .  S
C2389      C2930   1.493       .  S
C2389      N2405   1.354       .  A
Co2391    Cl2402   2.449       .  S
N2392      C2403   1.349       .  A
C2393      C2917   1.485       .  S
Co2395    Cl2402   2.450       .  S
C2403      C2709   1.483       .  S
C2406      C2805   1.488       .  S
C2406      N2424   1.351   1_455  A
N2407      N2424   1.324       .  A
N2407     Co2444   2.081       .  S
C2408      C2446   1.461       .  S
C2408      H2453   1.076       .  S
C2408      N2433   1.334       .  A
H2409      C2450   1.083       .  S
C2410      C2414   1.461   1_655  S
C2410      H2439   1.082       .  S
C2410      N2434   1.342       .  A
Co2411     N2429   2.098       .  S
Co2411     N2419   2.090       .  S
Co2411     N2451   2.080       .  S
Co2411     N2427   2.096       .  S
N2412      C2450   1.341       .  A
N2412     Co2413   2.086       .  S
Co2413     N2416   2.076       .  S
Co2413     N2433   2.068       .  S
Co2413     N2420   2.081       .  S
C2414      C2789   1.470       .  S
N2415      N2445   1.324       .  A
N2415     Co2448   2.089       .  S
N2416      N2452   1.323       .  A
N2417      N2427   1.327       .  A
H2418      C2443   1.079       .  S
N2419      N2440   1.324       .  A
N2420      N2425   1.322       .  A
C2421      C2658   1.485       .  S
C2421      N2425   1.349       .  A
N2422      C2437   1.340       .  A
N2422     Co2444   2.090       .  S
C2423      C2426   1.464       .  S
C2423      H2457   1.081       .  S
C2423      N2451   1.341       .  A
C2426      C2677   1.488       .  S
N2428      C2454   1.338       .  A
N2428     Co2444   2.070       .  S
N2429      C2443   1.342       .  A
N2430      N2458   1.324       .  A
N2430     Co2448   2.091       .  S
H2431      C2454   1.077       .  S
H2432      C2449   1.080       .  S
N2434     Co2448   2.093       .  S
N2435      N2447   1.323       .  A
N2435     Co2444   2.084       .  S
C2436      C2450   1.458       .  S
C2436      C2869   1.472       .  S
C2437      H2441   1.081       .  S
N2438      C2449   1.340       .  A
N2438     Co2448   2.074       .  S
C2442      N2458   1.354       .  A
N2445      C2456   1.354       .  A
Co2448    Cl2455   2.453   1_655  S
C2456      C2853   1.495       .  S
C2459      C2997   1.489       .  S
C2459      N2477   1.352       .  A
N2460      N2477   1.326       .  A
N2460     Co2497   2.094       .  S
C2461      H2506   1.077       .  S
C2461      N2486   1.341       .  A
H2462      C2503   1.082       .  S
C2463      C2467   1.461       .  S
C2463      H2492   1.082       .  S
C2463      N2487   1.343       .  A
Co2464     N2482   2.085       .  S
Co2464     N2472   2.078       .  S
Co2464     N2504   2.064       .  S
Co2464     N2480   2.075       .  S
N2465      C2503   1.342       .  A
N2465     Co2466   2.094       .  S
Co2466     N2469   2.088       .  S
Co2466     N2486   2.079       .  S
Co2466     N2473   2.080       .  S
C2467      C2981   1.477       .  S
N2468      N2498   1.325       .  A
N2468     Co2501   2.086       .  S
N2469      N2505   1.324       .  A
N2470      C2499   1.349       .  A
N2470      N2480   1.321       .  A
H2471      C2496   1.080       .  S
N2472      N2493   1.324       .  A
N2473      N2478   1.322       .  A
C2474      C2502   1.463       .  S
N2475      C2490   1.343       .  A
N2475     Co2497   2.100       .  S
C2476      H2510   1.082       .  S
C2476      N2504   1.334       .  A
C2479      N2500   1.354       .  A
N2481      C2507   1.337       .  A
N2481     Co2497   2.074       .  S
N2482      C2496   1.340       .  A
N2483      N2511   1.326       .  A
N2483     Co2501   2.090       .  S
H2484      C2507   1.080       .  S
H2485      C2502   1.081       .  S
N2487     Co2501   2.098       .  S
N2488      N2500   1.327       .  A
N2488     Co2497   2.092       .  S
C2489      C2503   1.460       .  S
C2489      C2530   1.473   1_655  S
C2490      H2494   1.081       .  S
N2491      C2502   1.338       .  A
N2491     Co2501   2.071       .  S
C2495      C2507   1.463       .  S
C2495      C2562   1.493       .  S
N2498      C2509   1.350   1_655  A
C2499      C2578   1.484       .  S
Co2501    Cl2508   2.452       .  S
C2509      C2546   1.492       .  S
C2512      C2513   1.415       .  A
C2512      C2517   1.403       .  A
C2512      C2674   1.487       .  S
C2513      C2514   1.402       .  A
C2513      C2581   1.477       .  S
C2514      C2515   1.396       .  A
C2514      H2519   1.085       .  S
C2515      C2516   1.404       .  A
C2515      C2565   1.476       .  S
C2516      C2517   1.399       .  A
C2516      C2661   1.473       .  S
C2517      H2518   1.086       .  S
C2520      C2521   1.409   1_565  A
C2520      C2525   1.400       .  A
C2520      C2610   1.475       .  S
C2521      C2522   1.401   1_545  A
C2521      C2645   1.481       .  S
C2522      C2523   1.400       .  A
C2522      H2527   1.084       .  S
C2523      C2524   1.409       .  A
C2523      C2629   1.478   1_565  S
C2524      C2525   1.401       .  A
C2524      C2597   1.478       .  S
C2525      H2526   1.084       .  S
C2528      C2533   1.592       .  S
C2528      C2549   1.594       .  S
C2528      C2690   1.569       .  S
C2529      C2534   1.405       .  A
C2529      H2536   1.085       .  S
C2530      C2531   1.405       .  A
C2531      C2538   1.508       .  S
C2531      C2532   1.405       .  A
C2532      H2537   1.080       .  S
C2533      C2534   1.446       .  A
C2534      C2535   1.511       .  S
C2535      H2539   1.104       .  S
C2535      H2541   1.100       .  S
C2538      H2542   1.110   1_455  S
C2538      H2544   1.111       .  S
C2545      C2550   1.409       .  A
C2545      H2552   1.085       .  S
C2546      C2547   1.410   1_455  A
C2547      C2554   1.507       .  S
C2547      C2548   1.406       .  A
C2548      H2553   1.083       .  S
C2549      C2550   1.453       .  A
C2550      C2551   1.514       .  S
C2551      H2555   1.111       .  S
C2551      H2556   1.106       .  S
C2551      H2557   1.099       .  S
C2554      H2558   1.110       .  S
C2554      H2559   1.110       .  S
C2554      H2560   1.111       .  S
C2561      C2562   1.408       .  A
C2561      C2566   1.399       .  A
C2561      H2568   1.079       .  S
C2563      C2570   1.507       .  S
C2563      C2564   1.407       .  A
C2564      H2569   1.084       .  S
C2565      C2566   1.409       .  A
C2566      C2567   1.509       .  S
C2567      H2571   1.110       .  S
C2567      H2572   1.110       .  S
C2567      H2573   1.108       .  S
C2570      H2574   1.110       .  S
C2570      H2575   1.110       .  S
C2570      H2576   1.111       .  S
C2577      C2578   1.405       .  A
C2577      C2582   1.399       .  A
C2577      H2584   1.084       .  S
C2579      C2586   1.501       .  S
C2579      C2580   1.403       .  A
C2580      H2585   1.084       .  S
C2581      C2582   1.414       .  A
C2582      C2583   1.512       .  S
C2583      H2587   1.111       .  S
C2583      H2588   1.107       .  S
C2583      H2589   1.109       .  S
C2586      H2590   1.106       .  S
C2586      H2591   1.110       .  S
C2586      H2592   1.111       .  S
C2593      C2594   1.404       .  A
C2593      C2598   1.395       .  A
C2594      C2595   1.417   1_565  A
C2595      C2602   1.507       .  S
C2595      C2596   1.408       .  A
C2596      C2597   1.404   1_545  A
C2596      H2601   1.085       .  S
C2597      C2598   1.413       .  A
C2598      C2599   1.510       .  S
C2599      H2604   1.107       .  S
C2602      H2606   1.110       .  S
C2602      H2608   1.111       .  S
C2609      C2610   1.398       .  A
C2609      C2614   1.401       .  A
C2609      H2616   1.085       .  S
C2611      C2618   1.506       .  S
C2611      C2612   1.402       .  A
C2612      H2617   1.081       .  S
C2613      C2614   1.420       .  A
C2614      C2615   1.506       .  S
C2615      H2619   1.111       .  S
C2615      H2620   1.103       .  S
C2615      H2621   1.110       .  S
C2618      H2622   1.107       .  S
C2618      H2623   1.110       .  S
C2618      H2624   1.111       .  S
C2625      C2626   1.409   1_565  A
C2625      C2630   1.405       .  A
C2625      H2632   1.085       .  S
C2627      C2634   1.505       .  S
C2627      C2628   1.399       .  A
C2628      H2633   1.086       .  S
C2629      C2630   1.411   1_545  A
C2630      C2631   1.505       .  S
C2631      H2635   1.110       .  S
C2631      H2636   1.104       .  S
C2634      H2639   1.104       .  S
C2634      H2640   1.111       .  S
C2641      C2646   1.397       .  A
C2641      H2648   1.084       .  S
C2642      C2643   1.422       .  A
C2643      C2650   1.505       .  S
C2643      C2644   1.406       .  A
C2644      C2645   1.400   1_565  A
C2644      H2649   1.084       .  S
C2646      C2647   1.509       .  S
C2647      H2651   1.111       .  S
C2647      H2653   1.108       .  S
C2650      H2654   1.106       .  S
C2650      H2655   1.110       .  S
C2650      H2656   1.111       .  S
C2657      C2662   1.401       .  A
C2657      H2664   1.081       .  S
C2658      C2659   1.420       .  A
C2659      C2666   1.505       .  S
C2659      C2660   1.402       .  A
C2660      C2661   1.397       .  A
C2660      H2665   1.082       .  S
C2662      C2663   1.508       .  S
C2663      H2667   1.111       .  S
C2663      H2668   1.110       .  S
C2663      H2669   1.109       .  S
C2666      H2670   1.110       .  S
C2666      H2671   1.109       .  S
C2666      H2672   1.111       .  S
C2673      C2678   1.402       .  A
C2673      H2680   1.084       .  S
C2674      C2675   1.412       .  A
C2675      C2682   1.504       .  S
C2675      C2676   1.405       .  A
C2676      C2677   1.406       .  A
C2676      H2681   1.082       .  S
C2678      C2679   1.508       .  S
C2679      H2683   1.111       .  S
C2679      H2684   1.107       .  S
C2679      H2685   1.110       .  S
C2682      H2686   1.106       .  S
C2682      H2687   1.110       .  S
C2682      H2688   1.111       .  S
C2689      C2690   1.424       .  A
C2689      C2694   1.400       .  A
C2689      H2696   1.083       .  S
C2690      C2691   1.443       .  A
C2691      C2698   1.512       .  S
C2691      C2692   1.406       .  A
C2692      C2693   1.394       .  A
C2692      H2697   1.086       .  S
C2693      C2694   1.398       .  A
C2694      C2695   1.507       .  S
C2695      H2699   1.111       .  S
C2695      H2700   1.110       .  S
C2695      H2701   1.110       .  S
C2698      H2702   1.093       .  S
C2698      H2703   1.110       .  S
C2698      H2704   1.111       .  S
C2705      C2706   1.423       .  A
C2705      C2710   1.401       .  A
C2705      H2712   1.078       .  S
C2706      C2707   1.435       .  A
C2707      C2714   1.509       .  S
C2707      C2708   1.410       .  A
C2708      C2709   1.402       .  A
C2708      H2713   1.084       .  S
C2709      C2710   1.405       .  A
C2710      C2711   1.510       .  S
C2711      H2715   1.111       .  S
C2711      H2716   1.111       .  S
C2711      H2717   1.105       .  S
C2714      H2718   1.107       .  S
C2714      H2719   1.099   1_655  S
C2714      H2720   1.111       .  S
C2721      C2722   1.401       .  A
C2721      C2726   1.401       .  A
C2721      H2728   1.086       .  S
C2722      C2723   1.408       .  A
C2723      C2730   1.506       .  S
C2723      C2724   1.399       .  A
C2724      C2725   1.406       .  A
C2724      H2729   1.081       .  S
C2725      C2726   1.419       .  A
C2726      C2727   1.507       .  S
C2727      H2731   1.111       .  S
C2727      H2732   1.105       .  S
C2727      H2733   1.110       .  S
C2730      H2734   1.104       .  S
C2730      H2735   1.110       .  S
C2730      H2736   1.111       .  S
C2737      C2738   1.402       .  A
C2737      C2742   1.400       .  A
C2737      H2744   1.085       .  S
C2738      C2739   1.420       .  A
C2739      C2746   1.508       .  S
C2739      C2740   1.403       .  A
C2740      C2741   1.400       .  A
C2740      H2745   1.083       .  S
C2741      C2742   1.413       .  A
C2742      C2743   1.508       .  S
C2743      H2747   1.111       .  S
C2743      H2748   1.108       .  S
C2743      H2749   1.110       .  S
C2746      H2750   1.110       .  S
C2746      H2751   1.107       .  S
C2746      H2752   1.111       .  S
C2753      C2754   1.399       .  A
C2753      C2758   1.402       .  A
C2753      H2760   1.084       .  S
C2754      C2755   1.408       .  A
C2755      C2762   1.505       .  S
C2755      C2756   1.407       .  A
C2756      C2757   1.411       .  A
C2756      H2761   1.084       .  S
C2757      C2758   1.422       .  A
C2758      C2759   1.505       .  S
C2759      H2763   1.111       .  S
C2759      H2764   1.109       .  S
C2759      H2765   1.110       .  S
C2762      H2766   1.107       .  S
C2762      H2767   1.110       .  S
C2762      H2768   1.111       .  S
C2769      C2770   1.398       .  A
C2769      C2774   1.403       .  A
C2769      H2776   1.085       .  S
C2770      C2771   1.409       .  A
C2771      C2778   1.509       .  S
C2771      C2772   1.398       .  A
C2772      C2773   1.406       .  A
C2772      H2777   1.082       .  S
C2773      C2774   1.419       .  A
C2774      C2775   1.505       .  S
C2775      H2779   1.111       .  S
C2775      H2780   1.109       .  S
C2775      H2781   1.110       .  S
C2778      H2782   1.109       .  S
C2778      H2783   1.109       .  S
C2778      H2784   1.111       .  S
C2785      C2786   1.419       .  A
C2785      C2790   1.402       .  A
C2785      H2792   1.075       .  S
C2787      C2794   1.515       .  S
C2787      C2788   1.407       .  A
C2788      H2793   1.084       .  S
C2789      C2790   1.404       .  A
C2790      C2791   1.508   1_455  S
C2791      H2795   1.111       .  S
C2791      H2796   1.110       .  S
C2791      H2797   1.110   1_655  S
C2794      H2798   1.107       .  S
C2794      H2799   1.107       .  S
C2794      H2800   1.111       .  S
C2801      C2806   1.405       .  A
C2801      H2808   1.076       .  S
C2802      C2803   1.438       .  A
C2803      C2810   1.504       .  S
C2803      C2804   1.407       .  A
C2804      C2805   1.399   1_655  A
C2804      H2809   1.085       .  S
C2806      C2807   1.510       .  S
C2807      H2811   1.111       .  S
C2807      H2812   1.110       .  S
C2807      H2813   1.106       .  S
C2810      H2814   1.086       .  S
C2810      H2815   1.111       .  S
C2810      H2816   1.111       .  S
C2817      C2818   1.388       .  A
C2817      C2822   1.402       .  A
C2817      H2824   1.085       .  S
C2818      C2819   1.406       .  A
C2819      C2826   1.507       .  S
C2819      C2820   1.407       .  A
C2820      C2821   1.422       .  A
C2820      H2825   1.076       .  S
C2821      C2822   1.444       .  A
C2822      C2823   1.511       .  S
C2823      H2827   1.110       .  S
C2823      H2828   1.111       .  S
C2823      H2829   1.096       .  S
C2826      H2830   1.110       .  S
C2826      H2831   1.110       .  S
C2826      H2832   1.111       .  S
C2833      C2834   1.422       .  A
C2833      C2838   1.408       .  A
C2833      H2840   1.083       .  S
C2834      C2835   1.453       .  A
C2835      C2842   1.521       .  S
C2835      C2836   1.408       .  A
C2836      C2837   1.394       .  A
C2836      H2841   1.085       .  S
C2837      C2838   1.412       .  A
C2838      C2839   1.505       .  S
C2839      H2843   1.111       .  S
C2839      H2844   1.110       .  S
C2839      H2845   1.108       .  S
C2842      H2846   1.105       .  S
C2842      H2847   1.101       .  S
C2842      H2848   1.111       .  S
C2849      C2854   1.405       .  A
C2849      H2856   1.076       .  S
C2850      C2851   1.436       .  A
C2851      C2858   1.513       .  S
C2851      C2852   1.408       .  A
C2852      C2853   1.403       .  A
C2852      H2857   1.084       .  S
C2854      C2855   1.508       .  S
C2855      H2859   1.111       .  S
C2855      H2860   1.110       .  S
C2855      H2861   1.107       .  S
C2858      H2862   1.107       .  S
C2858      H2863   1.105       .  S
C2858      H2864   1.111       .  S
C2865      C2866   1.426       .  A
C2865      C2870   1.401       .  A
C2865      H2872   1.083       .  S
C2866      C2867   1.448       .  A
C2867      C2874   1.514       .  S
C2867      C2868   1.408       .  A
C2868      C2869   1.393       .  A
C2868      H2873   1.086       .  S
C2869      C2870   1.398       .  A
C2870      C2871   1.506       .  S
C2871      H2875   1.111       .  S
C2871      H2877   1.110       .  S
C2874      H2879   1.110       .  S
C2874      H2880   1.112       .  S
C2881      C2882   1.426       .  A
C2881      C2886   1.406       .  A
C2881      H2888   1.075       .  S
C2882      C2883   1.442       .  A
C2883      C2890   1.513       .  S
C2883      C2884   1.413       .  A
C2884      C2885   1.399       .  A
C2884      H2889   1.084       .  S
C2885      C2886   1.407       .  A
C2886      C2887   1.510       .  S
C2887      H2891   1.111       .  S
C2887      H2892   1.110       .  S
C2887      H2893   1.109       .  S
C2890      H2894   1.107       .  S
C2890      H2895   1.104       .  S
C2890      H2896   1.111       .  S
C2897      C2898   1.389       .  A
C2897      C2902   1.408       .  A
C2897      H2904   1.085       .  S
C2898      C2899   1.404       .  A
C2899      C2906   1.507       .  S
C2899      C2900   1.407       .  A
C2900      C2901   1.422       .  A
C2900      H2905   1.078       .  S
C2901      C2902   1.446       .  A
C2902      C2903   1.511       .  S
C2903      H2907   1.111       .  S
C2903      H2908   1.099       .  S
C2903      H2909   1.105       .  S
C2906      H2910   1.110       .  S
C2906      H2911   1.110       .  S
C2906      H2912   1.111       .  S
C2913      C2914   1.399       .  A
C2913      C2918   1.402       .  A
C2913      H2920   1.085       .  S
C2914      C2915   1.415       .  A
C2915      C2922   1.507       .  S
C2915      C2916   1.401       .  A
C2916      C2917   1.404       .  A
C2916      H2921   1.085       .  S
C2917      C2918   1.419       .  A
C2918      C2919   1.504       .  S
C2919      H2923   1.111       .  S
C2919      H2924   1.109       .  S
C2919      H2925   1.106       .  S
C2922      H2926   1.110       .  S
C2922      H2927   1.108       .  S
C2922      H2928   1.111       .  S
C2929      C2930   1.408       .  A
C2929      C2934   1.400       .  A
C2929      H2936   1.082       .  S
C2930      C2931   1.420       .  A
C2931      C2938   1.507       .  S
C2931      C2932   1.406       .  A
C2932      C2933   1.401       .  A
C2932      H2937   1.083       .  S
C2933      C2934   1.408       .  A
C2934      C2935   1.507       .  S
C2935      H2939   1.111       .  S
C2935      H2940   1.108       .  S
C2935      H2941   1.108       .  S
C2938      H2942   1.110       .  S
C2938      H2943   1.109       .  S
C2938      H2944   1.111       .  S
C2945      C2946   1.406       .  A
C2945      C2950   1.400       .  A
C2945      H2952   1.082       .  S
C2946      C2947   1.420       .  A
C2947      C2954   1.507       .  S
C2947      C2948   1.404       .  A
C2948      C2949   1.400       .  A
C2948      H2953   1.084       .  S
C2949      C2950   1.411       .  A
C2950      C2951   1.508       .  S
C2951      H2955   1.111       .  S
C2951      H2956   1.110       .  S
C2951      H2957   1.109       .  S
C2954      H2958   1.109       .  S
C2954      H2959   1.111       .  S
C2954      H2960   1.111       .  S
C2961      C2962   1.398       .  A
C2961      C2966   1.402       .  A
C2961      H2968   1.084       .  S
C2962      C2963   1.409       .  A
C2963      C2970   1.506       .  S
C2963      C2964   1.403       .  A
C2964      C2965   1.410       .  A
C2964      H2969   1.083       .  S
C2965      C2966   1.422       .  A
C2966      C2967   1.504       .  S
C2967      H2971   1.111       .  S
C2967      H2972   1.104       .  S
C2967      H2973   1.110       .  S
C2970      H2974   1.110       .  S
C2970      H2975   1.108       .  S
C2970      H2976   1.110       .  S
C2977      C2978   1.423       .  A
C2977      C2982   1.401       .  A
C2977      H2984   1.075       .  S
C2978      C2979   1.444       .  A
C2979      C2980   1.412       .  A
C2980      C2981   1.397       .  A
C2980      H2985   1.084       .  S
C2981      C2982   1.398       .  A
C2982      C2983   1.507       .  S
C2983      H2987   1.111       .  S
C2983      H2989   1.110       .  S
C2986      H2990   1.097       .  S
C2986      H2992   1.111       .  S
C2993      C2994   1.420       .  A
C2993      C2998   1.404       .  A
C2993      H3000   1.082       .  S
C2995      C3002   1.515       .  S
C2995      C2996   1.408       .  A
C2996      H3001   1.084       .  S
C2997      C2998   1.409       .  A
C2998      C2999   1.507       .  S
C2999      H3003   1.111       .  S
C2999      H3005   1.110       .  S
C3002      H3006   1.110       .  S
C3002      H3008   1.112       .  S
C3009      C3010   1.425       .  A
C3009      C3014   1.405       .  A
C3009      H3016   1.078       .  S
C3010      C3011   1.438       .  A
C3011      C3018   1.507       .  S
C3011      C3012   1.409       .  A
C3012      C3013   1.397       .  A
C3012      H3017   1.084       .  S
C3013      C3014   1.406       .  A
C3014      C3015   1.509       .  S
C3015      H3019   1.111       .  S
C3015      H3020   1.110       .  S
C3015      H3021   1.107       .  S
C3018      H3022   1.104       .  S
C3018      H3023   1.100       .  S
C3018      H3024   1.111       .  S
C3025      C3026   1.396       .  A
C3025      C3030   1.409       .  A
C3025      H3032   1.086       .  S
C3026      C3027   1.400       .  A
C3027      C3034   1.507       .  S
C3027      C3028   1.402       .  A
C3028      C3029   1.421       .  A
C3028      H3033   1.078       .  S
C3029      C3030   1.441       .  A
C3030      C3031   1.513       .  S
C3031      H3035   1.111       .  S
C3031      H3036   1.096   1_565  S
C3031      H3037   1.110   1_565  S
C3034      H3038   1.110       .  S
C3034      H3039   1.110       .  S
C3034      H3040   1.111       .  S
