geometry optimzed in LAMMPS
_audit_creation_date              2020-11-30 
_audit_creation_method            'lammps2cif' 
_symmetry_space_group_name_H-M    'P1' 
_symmetry_Int_Tables_number       1 
_symmetry_cell_setting            triclinic 
loop_ 
_symmetry_equiv_pos_as_xyz 
  x,y,z 
_cell_length_a                    40.33221628120213 
_cell_length_b                    40.613970746793996 
_cell_length_c                    40.22690968961589 
_cell_angle_alpha                 85.48251471612967 
_cell_angle_beta                  86.97386684297207 
_cell_angle_gamma                 93.03857210376358 
loop_ 
_atom_site_label 
_atom_site_type_symbol 
_atom_site_fract_x 
_atom_site_fract_y 
_atom_site_fract_z 
_atom_site_charge 
C1          C  0.09966100  0.27381736  0.51846067     0.02540
C2          C  0.13316808  0.27223070  0.02598496    -0.13610
C3          C  0.14712078  0.24131420  0.03172826     0.00040
C4          C  0.12749492  0.21225170  0.02799306    -0.12140
C5          C  0.09430455  0.21386070  0.51933062     0.02530
C6          C  0.08084205  0.24469568  0.51417626    -0.11560
H7          H  0.14757222  0.29481749  0.02956576     0.08120
H8          H  0.13742757  0.18831368  0.03373217     0.05650
H9          H  0.05475195  0.24595011  0.50916330     0.05500
C10         C  0.32355876  0.19267628  0.10019954     0.02540
C11         C  0.29150428  0.19541546  0.08851126    -0.13610
C12         C  0.27910677  0.22680897  0.08110868     0.00040
C13         C  0.29914546  0.25525677  0.08598242    -0.12140
C14         C  0.33119351  0.25255066  0.09750772     0.02530
C15         C  0.34277363  0.22127950  0.10553281    -0.11560
H16         H  0.27695941  0.17324790  0.08380705     0.08120
H17         H  0.29045095  0.27955373  0.07922247     0.05650
H18         H  0.36801741  0.21920320  0.11318764     0.05500
C19         C  0.17025489  0.44341514  0.20640754     0.02540
C20         C  0.19878967  0.44093923  0.18545841    -0.13610
C21         C  0.23046094  0.44716536  0.19697691     0.00040
C22         C  0.23357479  0.45553564  0.22992488    -0.12140
C23         C  0.20534093  0.45757781  0.25139270     0.02530
C24         C  0.17371884  0.45061389  0.23972516    -0.11560
H25         H  0.19631135  0.43690629  0.15935859     0.08120
H26         H  0.25794794  0.46240809  0.23820456     0.05650
H27         H  0.15175562  0.45303625  0.25586389     0.05500
C28         C  0.25444306  0.03070744  0.42223333     0.02540
C29         C  0.25218729  0.02346864  0.38885735    -0.13610
C30         C  0.22100906  0.01891278  0.37541448     0.00040
C31         C  0.19218722  0.02249005  0.39562826    -0.12140
C32         C  0.19415603  0.02956022  0.42917674     0.02530
C33         C  0.22546150  0.03432046  0.44208986    -0.11560
H34         H  0.27458329  0.01903475  0.37417011     0.08120
H35         H  0.16804160  0.01693831  0.38612305     0.05650
H36         H  0.22724292  0.03723827  0.46850603     0.05500
C37         C  0.00825535  0.12413264  0.26927811     0.02540
C38         C  0.99864672  0.15652230  0.27246831    -0.13610
C39         C  0.99368742  0.16815556  0.30428171     0.00040
C40         C  0.99857363  0.14697383  0.33272282    -0.12140
C41         C  0.00892731  0.11474343  0.32974972     0.02530
C42         C  0.01459197  0.10391508  0.29780302    -0.11560
H43         H  0.99355774  0.17200698  0.25035593     0.08120
H44         H  0.99268938  0.15512837  0.35724128     0.05650
H45         H  0.02108071  0.07864563  0.29517431     0.05500
C46         C  0.43300504  0.34187855  0.36016284     0.02540
C47         C  0.44161625  0.30923273  0.35560512    -0.13610
C48         C  0.45027017  0.29977798  0.32350725     0.00040
C49         C  0.44769573  0.32231244  0.29567455    -0.12140
C50         C  0.43653311  0.35404231  0.29943422     0.02530
C51         C  0.43025670  0.36386257  0.33166194    -0.11560
H52         H  0.44201036  0.29119608  0.37683428     0.08120
H53         H  0.45455716  0.31511187  0.27097635     0.05650
H54         H  0.42344813  0.38897887  0.33445440     0.05500
O55         O  0.02183248  0.41098314  0.01450000    -0.87080
O56         O  0.42972510  0.46535404  0.16973616    -0.87250
O57         O  0.03046657  0.43094292  0.12898214    -0.88920
O58         O  0.44017514  0.37964784  0.10085197    -0.87670
O59         O  0.39532591  0.39482960  0.07137367    -0.87260
O60         O  0.05394539  0.48357364  0.11699143    -0.88630
O61         O  0.45815923  0.42016431  0.15633072    -0.87110
O62         O  0.01348209  0.39141162  0.06936469    -0.86700
Zr63       Zr  0.47936680  0.42823843  0.09899519     2.84310
O64         O  0.42667462  0.44961227  0.10069033    -1.08670
O65         O  0.01600989  0.46179158  0.06216673    -1.09400
C66         C  0.02491072  0.38909251  0.03916340     1.06030
C67         C  0.44118963  0.43653591  0.17668437     1.05970
C68         C  0.05321001  0.45407360  0.13162893     1.08950
C69         C  0.41118097  0.37404555  0.08943392     1.06730
H70         H  0.49107155  0.48078967  0.13975002     0.32290
O71         O  0.48296893  0.48152336  0.11756018    -1.29630
H72         H  0.45723312  0.40740748  0.03878653     0.31960
O73         O  0.45872106  0.42958755  0.04585490    -1.31310
O74         O  0.40413363  0.05668654  0.11217818    -0.87080
O75         O  0.49666880  0.50146562  0.45797377    -0.88570
O76         O  0.01550272  0.04722151  0.12998841    -0.87150
O77         O  0.35646389  0.45355132  0.08525214    -0.87200
O78         O  0.40884537  0.42036883  0.99743322    -0.86910
O79         O  0.06856607  0.01365563  0.04186860    -0.86720
O80         O  0.48512354  0.08657939  0.02708792    -0.87090
O81         O  0.39526483  0.03448330  0.99779830    -0.86550
O82         O  0.02958288  0.07182941  0.05742522    -0.87620
O83         O  0.37076294  0.48279465  0.01187896    -0.86780
O84         O  0.46248905  0.03730459  0.15267375    -0.87170
O85         O  0.05239082  0.48330643  0.99920815    -0.86900
O86         O  0.46240429  0.42914965  0.47471815    -0.86550
O87         O  0.37209982  0.48473205  0.12756492    -0.86950
O88         O  0.41317610  0.07508526  0.05721531    -0.87250
O89         O  0.46869366  0.04700503  0.47107105    -0.88590
Zr90       Zr  0.43019752  0.50301405  0.11851621     2.83100
Zr91       Zr  0.49480471  0.46363993  0.00890492     2.83500
Zr92       Zr  0.01928583  0.01523793  0.08047745     2.84090
Zr93       Zr  0.40601416  0.45118682  0.04747662     2.83360
Zr94       Zr  0.44628364  0.03786494  0.02808111     2.84220
O95         O  0.44190740  0.48471621  0.00957974    -1.09160
O96         O  0.46652258  0.03673844  0.08154383    -1.08660
C97         C  0.40137283  0.07818310  0.08697901     1.06000
C98         C  0.48631803  0.03073884  0.45114877     1.08620
C99         C  0.49210679  0.05096156  0.15244990     1.06170
C100        C  0.35051555  0.46759351  0.11257911     1.06530
C101        C  0.43251490  0.41600946  0.47550160     1.06110
C102        C  0.07408323  0.50061916  0.01383682     1.05670
C103        C  0.01382334  0.09240399  0.03904609     1.06090
C104        C  0.37160231  0.01194149  0.99649871     1.05610
H105        H  0.01369782  0.03073990  0.01209529     0.32280
O106        O  0.49875435  0.01665650  0.02723126    -1.30260
H107        H  0.38782337  0.01363378  0.06556271     0.32310
O108        O  0.40954937  0.50470773  0.06514116    -1.31640
C109        C  0.43270334  0.37737525  0.26965694    -0.06720
C110        C  0.44772149  0.40963195  0.26826221    -0.17850
C111        C  0.44885708  0.43082183  0.23886833     0.10480
C112        C  0.43459146  0.41959549  0.21023902    -0.06640
C113        C  0.41798722  0.38823554  0.21228585    -0.17880
C114        C  0.41606671  0.36746128  0.24170443     0.10510
S115        S  0.47060773  0.47081246  0.23895726    -0.32840
S116        S  0.39182303  0.32878534  0.24176407    -0.32850
H117        H  0.38180736  0.32682896  0.27592684     0.28520
H118        H  0.48418704  0.47236472  0.20594021     0.28520
H119        H  0.46027020  0.41776302  0.28958674     0.19110
H120        H  0.40705121  0.37946994  0.19040835     0.19110
C121        C  0.42808231  0.35451451  0.39398942    -0.06720
C122        C  0.40282492  0.37671250  0.39903458    -0.17850
C123        C  0.40250265  0.39659212  0.42598283     0.10480
C124        C  0.42661327  0.39277789  0.44984594    -0.06640
C125        C  0.44930288  0.36809488  0.44704698    -0.17880
C126        C  0.45077244  0.34926847  0.41941748     0.10510
S127        S  0.37292682  0.42828948  0.42644962    -0.32840
S128        S  0.48451880  0.32206462  0.41605983    -0.32850
H129        H  0.49326845  0.32134684  0.44950695     0.28520
H130        H  0.39380780  0.45221610  0.43963045     0.28520
H131        H  0.38462394  0.38048098  0.38043391     0.19110
H132        H  0.46763782  0.36522745  0.46565881     0.19110
C133        C  0.49819561  0.07220402  0.18065150    -0.06720
C134        C  0.47036386  0.07770676  0.20187065    -0.17850
C135        C  0.47315762  0.09496677  0.23017759     0.10480
C136        C  0.00441938  0.10852749  0.23772001    -0.06640
C137        C  0.03226921  0.10468552  0.21626908    -0.17880
C138        C  0.02960915  0.08672129  0.18789441     0.10510
S139        S  0.43550703  0.09830625  0.25577285    -0.32840
S140        S  0.06723403  0.08339266  0.16261282    -0.32850
H141        H  0.06440649  0.04871874  0.16517944     0.28520
H142        H  0.44971499  0.09488420  0.28685439     0.28520
H143        H  0.44576296  0.06783570  0.19707304     0.19110
H144        H  0.05636857  0.11507021  0.22212219     0.19110
C145        C  0.00851935  0.09079324  0.35972273    -0.06720
C146        C  0.49006515  0.06034576  0.35942802    -0.17850
C147        C  0.48372763  0.03917394  0.38852500     0.10480
C148        C  0.49622229  0.04847169  0.41865709    -0.06640
C149        C  0.01610470  0.07789331  0.41869592    -0.17880
C150        C  0.02291208  0.09879221  0.38957556     0.10510
S151        S  0.45797848  0.00183353  0.38588103    -0.32840
S152        S  0.05017696  0.13506094  0.39231905    -0.32850
H153        H  0.06233987  0.13733807  0.35875267     0.28520
H154        H  0.44264071  0.50054878  0.41818353     0.28520
H155        H  0.47876542  0.05383754  0.33681228     0.19110
H156        H  0.02607085  0.08486425  0.44182901     0.19110
C157        C  0.46206835  0.26636700  0.31857895    -0.06720
C158        C  0.44333160  0.24536422  0.29969137    -0.17850
C159        C  0.45277980  0.21330945  0.29474851     0.10480
C160        C  0.48209849  0.20186251  0.30843897    -0.06640
C161        C  0.00098484  0.22304036  0.32702214    -0.17880
C162        C  0.49169136  0.25516375  0.33172890     0.10510
S163        S  0.42539485  0.18776967  0.27230491    -0.32840
S164        S  0.51981631  0.28095974  0.35312564    -0.32850
H165        H  0.51233669  0.31114155  0.33642415     0.28520
H166        H  0.42902033  0.15887765  0.29313217     0.28520
H167        H  0.42066986  0.25376627  0.28936222     0.19110
H168        H  0.02371264  0.21472280  0.33727828     0.19110
C169        C  0.10719618  0.00664792  0.49572350    -0.06720
C170        C  0.12507127  0.03725455  0.99675017    -0.17850
C171        C  0.15339901  0.04595243  0.47527789     0.10480
C172        C  0.16414593  0.02357305  0.45223865    -0.06640
C173        C  0.14709287  0.99266316  0.45236974    -0.17880
C174        C  0.11941021  0.48383240  0.47385539     0.10510
S175        S  0.17373721  0.08624815  0.97765141    -0.32840
S176        S  0.10168018  0.44244439  0.47236102    -0.32850
H177        H  0.09403286  0.43750758  0.50700915     0.28520
H178        H  0.18539866  0.09061395  0.44395517     0.28520
H179        H  0.11609738  0.05512708  0.01320684     0.19110
H180        H  0.15596943  0.47468558  0.43594792     0.19110
C181        C  0.28585973  0.02666447  0.43871626    -0.06720
C182        C  0.30330357  0.05435264  0.44937501    -0.17850
C183        C  0.33156323  0.05082129  0.46800163     0.10480
C184        C  0.34300826  0.01882133  0.47565719    -0.06640
C185        C  0.32555975  0.49142275  0.46414360    -0.17880
C186        C  0.29718444  0.99487441  0.44628410     0.10510
S187        S  0.35021227  0.08777099  0.48288869    -0.32840
S188        S  0.27600740  0.45743541  0.43488220    -0.32850
H189        H  0.24353629  0.46760193  0.44030783     0.28520
H190        H  0.35194907  0.07375679  0.01584469     0.28520
H191        H  0.29419993  0.07873639  0.44406712     0.19110
H192        H  0.33346228  0.46667341  0.46991438     0.19110
C193        C  0.08037774  0.44758323  0.15395095    -0.06720
C194        C  0.08915924  0.47247703  0.17460060    -0.17850
C195        C  0.11780860  0.47149844  0.19238487     0.10480
C196        C  0.13745882  0.44372602  0.19147524    -0.06640
C197        C  0.12740582  0.41754620  0.17263410    -0.17880
C198        C  0.09942319  0.41941663  0.15340465     0.10510
S199        S  0.12931770  0.00814377  0.21270793    -0.32840
S200        S  0.09087865  0.38640909  0.12705530    -0.32850
H201        H  0.08230656  0.40709029  0.09949240     0.28520
H202        H  0.16317800  0.50895359  0.20211072     0.28520
H203        H  0.07439835  0.49389111  0.17548346     0.19110
H204        H  0.14247887  0.39630377  0.17152049     0.19110
C205        C  0.31666978  0.46373206  0.12902883    -0.06720
C206        C  0.29914292  0.43272581  0.13164787    -0.17850
C207        C  0.27098886  0.42619349  0.15373602     0.10480
C208        C  0.25972007  0.45149693  0.17301190    -0.06640
C209        C  0.27572506  0.48306571  0.16827879    -0.17880
C210        C  0.30344891  0.48957622  0.14620250     0.10510
S211        S  0.25172549  0.38487042  0.15730796    -0.32840
S212        S  0.32001762  0.03179084  0.14028831    -0.32850
H213        H  0.33133895  0.03021154  0.10678317     0.28520
H214        H  0.24032154  0.38480823  0.19094322     0.28520
H215        H  0.30836533  0.41302406  0.11776139     0.19110
H216        H  0.26619984  0.50305276  0.18165635     0.19110
C217        C  0.21818262  0.00481615  0.34259130    -0.06720
C218        C  0.23386911  0.47539609  0.33730099    -0.17850
C219        C  0.22930906  0.45884075  0.30847906     0.10480
C220        C  0.20876603  0.47196667  0.28393048    -0.06640
C221        C  0.19320154  0.50142935  0.28913072    -0.17880
C222        C  0.19793084  0.01811067  0.31782850     0.10510
S223        S  0.24949754  0.42055725  0.30512255    -0.32840
S224        S  0.17846947  0.05685707  0.32063004    -0.32850
H225        H  0.20281630  0.07137528  0.33952681     0.28520
H226        H  0.22537620  0.40572779  0.28619492     0.28520
H227        H  0.24894689  0.46456144  0.35634404     0.19110
H228        H  0.17809570  0.51218702  0.27008829     0.19110
C229        C  0.34097503  0.16187272  0.09780529    -0.06720
C230        C  0.36260027  0.16098311  0.06966957    -0.17850
C231        C  0.38391307  0.13536343  0.06634831     0.10480
C232        C  0.38254001  0.10840127  0.09142542    -0.06640
C233        C  0.36141080  0.10996211  0.12023799    -0.17880
C234        C  0.34051836  0.13625254  0.12363695     0.10510
S235        S  0.41414193  0.13975329  0.03097640    -0.32840
S236        S  0.31483950  0.13595774  0.16177453    -0.32850
H237        H  0.29186663  0.15822709  0.14999519     0.28520
H238        H  0.40293091  0.16867163  0.01472721     0.28520
H239        H  0.36356747  0.18148587  0.05065190     0.19110
H240        H  0.36102874  0.09056909  0.14029420     0.19110
C241        C  0.39425652  0.34121077  0.09683357    -0.06720
C242        C  0.40331810  0.31609042  0.07681616    -0.17850
C243        C  0.38341533  0.28685245  0.07675738     0.10480
C244        C  0.35391740  0.28228858  0.09766808    -0.06640
C245        C  0.34557510  0.30687765  0.11866916    -0.17880
C246        C  0.36538004  0.33624671  0.11853966     0.10510
S247        S  0.39587202  0.25754510  0.04766870    -0.32840
S248        S  0.35179571  0.36628363  0.14634316    -0.32850
H249        H  0.37849376  0.38992046  0.14021029     0.28520
H250        H  0.36347856  0.24790540  0.03955568     0.28520
H251        H  0.42479267  0.32019230  0.05936430     0.19110
H252        H  0.32317969  0.30333028  0.13496540     0.19110
C253        C  0.07192786  0.18360945  0.02098705    -0.06720
C254        C  0.04392422  0.18139058  0.04360487    -0.17850
C255        C  0.02348559  0.15237492  0.04909840     0.10480
C256        C  0.03087461  0.12499211  0.03110759    -0.06640
C257        C  0.05817128  0.12743877  0.00774317    -0.17880
C258        C  0.07853533  0.15653249  0.50219948     0.10510
S259        S  0.48958732  0.15183412  0.08046951    -0.32840
S260        S  0.11233199  0.15752246  0.47087880    -0.32850
H261        H  0.11284001  0.19174801  0.46205181     0.28520
H262        H  0.48337608  0.11748912  0.08631723     0.28520
H263        H  0.03873669  0.20203329  0.05821538     0.19110
H264        H  0.06394956  0.10629183  0.99407689     0.19110
C265        C  0.04298949  0.35895778  0.03279754    -0.06720
C266        C  0.06671156  0.35986635  0.00571335    -0.17850
C267        C  0.08610127  0.33288438  0.50029194     0.10480
C268        C  0.08170664  0.30413422  0.02245269    -0.06640
C269        C  0.05764813  0.30286950  0.04898846    -0.17880
C270        C  0.03780691  0.32926470  0.05392618     0.10510
S271        S  0.11551833  0.33666026  0.46465561    -0.32840
S272        S  0.00478540  0.32188975  0.08610269    -0.32850
H273        H  0.48113105  0.33710328  0.06655588     0.28520
H274        H  0.11564376  0.30277272  0.45985913     0.28520
H275        H  0.07001828  0.38157233  0.48841065     0.19110
H276        H  0.05359475  0.28048277  0.06559804     0.19110
C277        C  0.18112900  0.23870113  0.04421576    -0.06720
C278        C  0.20338643  0.21872576  0.02820668    -0.17850
C279        C  0.23550157  0.21472282  0.03911674     0.10480
C280        C  0.24578081  0.23049610  0.06734365    -0.06580
C281        C  0.22365300  0.25070418  0.08311146    -0.17880
C282        C  0.19156636  0.25465405  0.07228564     0.10510
S283        S  0.26237344  0.19035596  0.01492198    -0.32840
S284        S  0.16479043  0.27877361  0.09685586    -0.32850
H285        H  0.13585330  0.25845123  0.09426452     0.28520
H286        H  0.29181157  0.20924955  0.01938363     0.28520
H287        H  0.19585205  0.20654079  0.00656563     0.19110
H288        H  0.23110034  0.26276230  0.10485959     0.19110
C289        C  0.09966100  0.27381736  0.01846066     0.02540
C290        C  0.13316808  0.27223070  0.52598497    -0.13610
C291        C  0.14712078  0.24131420  0.53172827     0.00040
C292        C  0.12749491  0.21225170  0.52799307    -0.12140
C293        C  0.09430455  0.21386069  0.01933062     0.02530
C294        C  0.08084205  0.24469567  0.01417626    -0.11560
H295        H  0.14757222  0.29481749  0.52956577     0.08120
H296        H  0.13742757  0.18831368  0.53373217     0.05650
H297        H  0.05475195  0.24595011  0.00916330     0.05500
C298        C  0.32355876  0.19267628  0.60019954     0.02540
C299        C  0.29150428  0.19541546  0.58851127    -0.13610
C300        C  0.27910677  0.22680897  0.58110869     0.00040
C301        C  0.29914545  0.25525677  0.58598243    -0.12140
C302        C  0.33119351  0.25255066  0.59750773     0.02530
C303        C  0.34277363  0.22127950  0.60553282    -0.11560
H304        H  0.27695941  0.17324790  0.58380706     0.08120
H305        H  0.29045094  0.27955373  0.57922248     0.05650
H306        H  0.36801740  0.21920320  0.61318765     0.05500
C307        C  0.17025489  0.44341513  0.70640754     0.02540
C308        C  0.19878967  0.44093922  0.68545841    -0.13610
C309        C  0.23046093  0.44716535  0.69697691     0.00040
C310        C  0.23357479  0.45553563  0.72992488    -0.12140
C311        C  0.20534093  0.45757780  0.75139270     0.02530
C312        C  0.17371884  0.45061388  0.73972516    -0.11560
H313        H  0.19631134  0.43690628  0.65935859     0.08120
H314        H  0.25794794  0.46240808  0.73820456     0.05650
H315        H  0.15175562  0.45303624  0.75586389     0.05500
C316        C  0.25444306  0.03070744  0.92223333     0.02540
C317        C  0.25218729  0.02346864  0.88885735    -0.13610
C318        C  0.22100906  0.01891278  0.87541448     0.00040
C319        C  0.19218723  0.02249005  0.89562826    -0.12140
C320        C  0.19415603  0.02956022  0.92917674     0.02530
C321        C  0.22546151  0.03432045  0.94208986    -0.11560
H322        H  0.27458330  0.01903474  0.87417011     0.08120
H323        H  0.16804161  0.01693831  0.88612305     0.05650
H324        H  0.22724293  0.03723826  0.96850603     0.05500
C325        C  0.00825536  0.12413264  0.76927811     0.02540
C326        C  0.99864672  0.15652229  0.77246832    -0.13610
C327        C  0.99368742  0.16815556  0.80428172     0.00040
C328        C  0.99857364  0.14697383  0.83272282    -0.12140
C329        C  0.00892733  0.11474342  0.82974972     0.02530
C330        C  0.01459198  0.10391508  0.79780302    -0.11560
H331        H  0.99355774  0.17200697  0.75035593     0.08120
H332        H  0.99268939  0.15512837  0.85724129     0.05650
H333        H  0.02108073  0.07864563  0.79517432     0.05500
C334        C  0.43300504  0.34187854  0.86016284     0.02540
C335        C  0.44161625  0.30923273  0.85560512    -0.13610
C336        C  0.45027016  0.29977797  0.82350725     0.00040
C337        C  0.44769573  0.32231244  0.79567455    -0.12140
C338        C  0.43653310  0.35404231  0.79943422     0.02530
C339        C  0.43025670  0.36386256  0.83166194    -0.11560
H340        H  0.44201036  0.29119608  0.87683428     0.08120
H341        H  0.45455716  0.31511187  0.77097635     0.05650
H342        H  0.42344813  0.38897887  0.83445440     0.05500
O343        O  0.02183248  0.41098315  0.51450000    -0.87080
O344        O  0.42972510  0.46535404  0.66973616    -0.87250
O345        O  0.03046657  0.43094292  0.62898214    -0.88920
O346        O  0.44017514  0.37964784  0.60085198    -0.87670
O347        O  0.39532591  0.39482960  0.57137367    -0.87260
O348        O  0.05394539  0.48357364  0.61699142    -0.88630
O349        O  0.45815923  0.42016431  0.65633073    -0.87110
O350        O  0.01348209  0.39141163  0.56936469    -0.86700
Zr351      Zr  0.47936680  0.42823843  0.59899520     2.84310
O352        O  0.42667462  0.44961227  0.60069033    -1.08670
O353        O  0.01600989  0.46179158  0.56216673    -1.09400
C354        C  0.02491072  0.38909251  0.53916340     1.06030
C355        C  0.44118963  0.43653591  0.67668437     1.05970
C356        C  0.05321001  0.45407360  0.63162893     1.08950
C357        C  0.41118097  0.37404555  0.58943393     1.06730
H358        H  0.49107155  0.48078967  0.63975002     0.32290
O359        O  0.48296893  0.48152336  0.61756018    -1.29630
H360        H  0.45723312  0.40740748  0.53878653     0.31960
O361        O  0.45872106  0.42958755  0.54585491    -1.31310
O362        O  0.40413362  0.05668654  0.61217818    -0.87080
O363        O  0.49666880  0.50146562  0.95797377    -0.88570
O364        O  0.01550272  0.04722151  0.62998842    -0.87150
O365        O  0.35646389  0.45355132  0.58525214    -0.87200
O366        O  0.40884536  0.42036883  0.49743322    -0.86910
O367        O  0.06856607  0.01365564  0.54186860    -0.86720
O368        O  0.48512353  0.08657939  0.52708792    -0.87090
O369        O  0.39526482  0.03448331  0.49779830    -0.86550
O370        O  0.02958287  0.07182942  0.55742522    -0.87620
O371        O  0.37076294  0.48279465  0.51187897    -0.86780
O372        O  0.46248904  0.03730459  0.65267375    -0.87170
O373        O  0.05239081  0.48330643  0.49920815    -0.86900
O374        O  0.46240429  0.42914965  0.97471815    -0.86550
O375        O  0.37209981  0.48473205  0.62756492    -0.86950
O376        O  0.41317610  0.07508526  0.55721531    -0.87250
O377        O  0.46869366  0.04700503  0.97107105    -0.88590
Zr378      Zr  0.43019751  0.50301405  0.61851622     2.83100
Zr379      Zr  0.49480471  0.46363993  0.50890492     2.83500
Zr380      Zr  0.01928582  0.01523794  0.58047745     2.84090
Zr381      Zr  0.40601416  0.45118682  0.54747662     2.83360
Zr382      Zr  0.44628363  0.03786494  0.52808111     2.84220
O383        O  0.44190740  0.48471621  0.50957974    -1.09160
O384        O  0.46652257  0.03673844  0.58154383    -1.08660
C385        C  0.40137283  0.07818310  0.58697901     1.06000
C386        C  0.48631803  0.03073884  0.95114877     1.08620
C387        C  0.49210678  0.05096156  0.65244990     1.06170
C388        C  0.35051555  0.46759351  0.61257911     1.06530
C389        C  0.43251490  0.41600946  0.97550160     1.06110
C390        C  0.07408322  0.50061917  0.51383682     1.05670
C391        C  0.01382333  0.09240400  0.53904609     1.06090
C392        C  0.37160230  0.01194149  0.49649872     1.05610
H393        H  0.01369782  0.03073990  0.51209528     0.32280
O394        O  0.49875435  0.01665651  0.52723126    -1.30260
H395        H  0.38782337  0.01363378  0.56556271     0.32310
O396        O  0.40954936  0.50470773  0.56514116    -1.31640
C397        C  0.43270333  0.37737524  0.76965694    -0.06720
C398        C  0.44772148  0.40963195  0.76826221    -0.17850
C399        C  0.44885708  0.43082182  0.73886833     0.10480
C400        C  0.43459146  0.41959549  0.71023902    -0.06640
C401        C  0.41798722  0.38823554  0.71228585    -0.17880
C402        C  0.41606671  0.36746128  0.74170443     0.10510
S403        S  0.47060773  0.47081246  0.73895726    -0.32840
S404        S  0.39182302  0.32878534  0.74176407    -0.32850
H405        H  0.38180735  0.32682896  0.77592684     0.28520
H406        H  0.48418704  0.47236472  0.70594021     0.28520
H407        H  0.46027020  0.41776302  0.78958674     0.19110
H408        H  0.40705121  0.37946994  0.69040835     0.19110
C409        C  0.42808231  0.35451451  0.89398942    -0.06720
C410        C  0.40282491  0.37671250  0.89903458    -0.17850
C411        C  0.40250265  0.39659211  0.92598283     0.10480
C412        C  0.42661328  0.39277789  0.94984594    -0.06640
C413        C  0.44930288  0.36809488  0.94704698    -0.17880
C414        C  0.45077245  0.34926848  0.91941748     0.10510
S415        S  0.37292681  0.42828947  0.92644963    -0.32840
S416        S  0.48451881  0.32206462  0.91605983    -0.32850
H417        H  0.49326846  0.32134684  0.94950694     0.28520
H418        H  0.39380779  0.45221610  0.93963045     0.28520
H419        H  0.38462394  0.38048098  0.88043392     0.19110
H420        H  0.46763783  0.36522745  0.96565880     0.19110
C421        C  0.49819561  0.07220401  0.68065151    -0.06720
C422        C  0.47036386  0.07770673  0.70187067    -0.17850
C423        C  0.47315762  0.09496675  0.73017761     0.10480
C424        C  0.00441938  0.10852748  0.73772001    -0.06640
C425        C  0.03226921  0.10468553  0.71626908    -0.17880
C426        C  0.02960914  0.08672130  0.68789441     0.10510
S427        S  0.43550704  0.09830620  0.75577289    -0.32840
S428        S  0.06723401  0.08339270  0.66261279    -0.32850
H429        H  0.06440651  0.04871878  0.66517942     0.28520
H430        H  0.44971501  0.09488418  0.78685442     0.28520
H431        H  0.44576296  0.06783566  0.69707307     0.19110
H432        H  0.05636856  0.11507024  0.72212217     0.19110
C433        C  0.00851936  0.09079324  0.85972273    -0.06720
C434        C  0.49006516  0.06034576  0.85942802    -0.17850
C435        C  0.48372764  0.03917394  0.88852500     0.10480
C436        C  0.49622230  0.04847169  0.91865709    -0.06640
C437        C  0.01610471  0.07789331  0.91869592    -0.17880
C438        C  0.02291209  0.09879221  0.88957557     0.10510
S439        S  0.45797849  0.00183353  0.88588103    -0.32840
S440        S  0.05017696  0.13506094  0.89231905    -0.32850
H441        H  0.06233988  0.13733807  0.85875268     0.28520
H442        H  0.44264070  0.50054880  0.91818354     0.28520
H443        H  0.47876543  0.05383754  0.83681228     0.19110
H444        H  0.02607085  0.08486425  0.94182902     0.19110
C445        C  0.46206835  0.26636700  0.81857895    -0.06720
C446        C  0.44333159  0.24536421  0.79969138    -0.17850
C447        C  0.45277980  0.21330945  0.79474852     0.10480
C448        C  0.48209849  0.20186251  0.80843897    -0.06640
C449        C  0.00098484  0.22304036  0.82702214    -0.17880
C450        C  0.49169136  0.25516375  0.83172890     0.10510
S451        S  0.42539485  0.18776966  0.77230492    -0.32840
S452        S  0.51981631  0.28095974  0.85312563    -0.32850
H453        H  0.51233669  0.31114155  0.83642414     0.28520
H454        H  0.42902033  0.15887764  0.79313217     0.28520
H455        H  0.42066986  0.25376626  0.78936223     0.19110
H456        H  0.02371264  0.21472280  0.83727828     0.19110
C457        C  0.10719618  0.00664791  0.99572350    -0.06720
C458        C  0.12507126  0.03725456  0.49675017    -0.17850
C459        C  0.15339902  0.04595242  0.97527790     0.10480
C460        C  0.16414593  0.02357304  0.95223865    -0.06640
C461        C  0.14709288  0.99266315  0.95236974    -0.17880
C462        C  0.11941023  0.48383238  0.97385542     0.10510
S463        S  0.17373719  0.08624817  0.47765139    -0.32840
S464        S  0.10168021  0.44244437  0.97236106    -0.32850
H465        H  0.09403287  0.43750757  0.00700919     0.28520
H466        H  0.18539867  0.09061394  0.94395519     0.28520
H467        H  0.11609737  0.05512710  0.51320683     0.19110
H468        H  0.15596946  0.47468556  0.93594795     0.19110
C469        C  0.28585974  0.02666446  0.93871626    -0.06720
C470        C  0.30330360  0.05435264  0.94937496    -0.17850
C471        C  0.33156326  0.05082129  0.96800158     0.10480
C472        C  0.34300827  0.01882133  0.97565718    -0.06640
C473        C  0.32555975  0.49142274  0.96414360    -0.17880
C474        C  0.29718443  0.99487439  0.94628413     0.10510
S475        S  0.35021235  0.08777100  0.98288858    -0.32840
S476        S  0.27600740  0.45743540  0.93488222    -0.32850
H477        H  0.24353629  0.46760193  0.94030784     0.28520
H478        H  0.35194902  0.07375673  0.51584478     0.28520
H479        H  0.29419998  0.07873639  0.94406705     0.19110
H480        H  0.33346227  0.46667341  0.96991439     0.19110
C481        C  0.08037774  0.44758323  0.65395095    -0.06720
C482        C  0.08915925  0.47247703  0.67460059    -0.17850
C483        C  0.11780861  0.47149844  0.69238486     0.10480
C484        C  0.13745882  0.44372601  0.69147524    -0.06640
C485        C  0.12740581  0.41754619  0.67263411    -0.17880
C486        C  0.09942319  0.41941662  0.65340466     0.10510
S487        S  0.12931771  0.00814379  0.71270790    -0.32840
S488        S  0.09087863  0.38640908  0.62705531    -0.32850
H489        H  0.08230655  0.40709027  0.59949241     0.28520
H490        H  0.16317803  0.50895358  0.70211070     0.28520
H491        H  0.07439836  0.49389112  0.67548345     0.19110
H492        H  0.14247886  0.39630376  0.67152050     0.19110
C493        C  0.31666977  0.46373206  0.62902883    -0.06720
C494        C  0.29914291  0.43272580  0.63164787    -0.17850
C495        C  0.27098886  0.42619348  0.65373602     0.10480
C496        C  0.25972007  0.45149692  0.67301190    -0.06640
C497        C  0.27572506  0.48306570  0.66827879    -0.17880
C498        C  0.30344891  0.48957622  0.64620250     0.10510
S499        S  0.25172549  0.38487041  0.65730796    -0.32840
S500        S  0.32001762  0.03179084  0.64028830    -0.32850
H501        H  0.33133895  0.03021154  0.60678315     0.28520
H502        H  0.24032154  0.38480822  0.69094322     0.28520
H503        H  0.30836534  0.41302405  0.61776139     0.19110
H504        H  0.26619983  0.50305275  0.68165635     0.19110
C505        C  0.21818262  0.00481615  0.84259130    -0.06720
C506        C  0.23386912  0.47539608  0.83730098    -0.17850
C507        C  0.22930907  0.45884075  0.80847905     0.10480
C508        C  0.20876603  0.47196666  0.78393048    -0.06640
C509        C  0.19320153  0.50142933  0.78913073    -0.17880
C510        C  0.19793084  0.01811067  0.81782850     0.10510
S511        S  0.24949757  0.42055725  0.80512254    -0.32840
S512        S  0.17846946  0.05685707  0.82063004    -0.32850
H513        H  0.20281629  0.07137528  0.83952682     0.28520
H514        H  0.22537622  0.40572779  0.78619491     0.28520
H515        H  0.24894691  0.46456143  0.85634403     0.19110
H516        H  0.17809568  0.51218700  0.77008830     0.19110
C517        C  0.34097502  0.16187272  0.59780530    -0.06720
C518        C  0.36260027  0.16098311  0.56966957    -0.17850
C519        C  0.38391307  0.13536344  0.56634831     0.10480
C520        C  0.38254001  0.10840127  0.59142542    -0.06640
C521        C  0.36141080  0.10996211  0.62023799    -0.17880
C522        C  0.34051836  0.13625254  0.62363696     0.10510
S523        S  0.41414193  0.13975330  0.53097640    -0.32840
S524        S  0.31483949  0.13595774  0.66177453    -0.32850
H525        H  0.29186663  0.15822708  0.64999520     0.28520
H526        H  0.40293092  0.16867164  0.51472723     0.28520
H527        H  0.36356747  0.18148588  0.55065191     0.19110
H528        H  0.36102873  0.09056909  0.64029420     0.19110
C529        C  0.39425652  0.34121077  0.59683357    -0.06720
C530        C  0.40331810  0.31609042  0.57681617    -0.17850
C531        C  0.38341532  0.28685245  0.57675739     0.10480
C532        C  0.35391739  0.28228859  0.59766809    -0.06640
C533        C  0.34557510  0.30687765  0.61866917    -0.17880
C534        C  0.36538004  0.33624671  0.61853966     0.10510
S535        S  0.39587201  0.25754510  0.54766871    -0.32840
S536        S  0.35179571  0.36628363  0.64634317    -0.32850
H537        H  0.37849375  0.38992047  0.64021029     0.28520
H538        H  0.36347855  0.24790540  0.53955568     0.28520
H539        H  0.42479267  0.32019230  0.55936431     0.19110
H540        H  0.32317969  0.30333028  0.63496541     0.19110
C541        C  0.07192785  0.18360945  0.52098706    -0.06720
C542        C  0.04392423  0.18139058  0.54360488    -0.17850
C543        C  0.02348559  0.15237493  0.54909841     0.10480
C544        C  0.03087460  0.12499211  0.53110759    -0.06640
C545        C  0.05817126  0.12743878  0.50774316    -0.17880
C546        C  0.07853534  0.15653248  0.00219948     0.10510
S547        S  0.48958733  0.15183413  0.58046953    -0.32840
S548        S  0.11233200  0.15752245  0.97087880    -0.32850
H549        H  0.11284002  0.19174800  0.96205181     0.28520
H550        H  0.48337596  0.11748914  0.58631714     0.28520
H551        H  0.03873670  0.20203329  0.55821540     0.19110
H552        H  0.06394954  0.10629184  0.49407688     0.19110
C553        C  0.04298949  0.35895779  0.53279754    -0.06720
C554        C  0.06671157  0.35986635  0.50571336    -0.17850
C555        C  0.08610126  0.33288438  0.00029193     0.10480
C556        C  0.08170664  0.30413422  0.52245269    -0.06640
C557        C  0.05764813  0.30286950  0.54898845    -0.17880
C558        C  0.03780690  0.32926470  0.55392618     0.10510
S559        S  0.11551831  0.33666025  0.96465559    -0.32840
S560        S  0.00478538  0.32188975  0.58610267    -0.32850
H561        H  0.48113104  0.33710329  0.56655586     0.28520
H562        H  0.11564375  0.30277271  0.95985912     0.28520
H563        H  0.07001826  0.38157232  0.98841063     0.19110
H564        H  0.05359474  0.28048277  0.56559803     0.19110
C565        C  0.18112900  0.23870113  0.54421577    -0.06720
C566        C  0.20338643  0.21872577  0.52820668    -0.17850
C567        C  0.23550157  0.21472282  0.53911675     0.10480
C568        C  0.24578080  0.23049610  0.56734365    -0.06580
C569        C  0.22365300  0.25070418  0.58311146    -0.17880
C570        C  0.19156636  0.25465404  0.57228564     0.10510
S571        S  0.26237344  0.19035597  0.51492199    -0.32840
S572        S  0.16479042  0.27877361  0.59685587    -0.32850
H573        H  0.13585329  0.25845123  0.59426453     0.28520
H574        H  0.29181157  0.20924956  0.51938363     0.28520
H575        H  0.19585205  0.20654079  0.50656563     0.19110
H576        H  0.23110033  0.26276230  0.60485960     0.19110
C577        C  0.09966099  0.77381736  0.51846067     0.02540
C578        C  0.13316808  0.77223070  0.02598496    -0.13610
C579        C  0.14712078  0.74131420  0.03172826     0.00040
C580        C  0.12749492  0.71225170  0.02799306    -0.12140
C581        C  0.09430455  0.71386070  0.51933062     0.02530
C582        C  0.08084205  0.74469568  0.51417627    -0.11560
H583        H  0.14757222  0.79481750  0.02956576     0.08120
H584        H  0.13742758  0.68831368  0.03373217     0.05650
H585        H  0.05475195  0.74595011  0.50916330     0.05500
C586        C  0.32355876  0.69267628  0.10019953     0.02540
C587        C  0.29150428  0.69541546  0.08851126    -0.13610
C588        C  0.27910677  0.72680897  0.08110868     0.00040
C589        C  0.29914546  0.75525677  0.08598242    -0.12140
C590        C  0.33119351  0.75255066  0.09750772     0.02530
C591        C  0.34277364  0.72127950  0.10553281    -0.11560
H592        H  0.27695941  0.67324791  0.08380705     0.08120
H593        H  0.29045095  0.77955373  0.07922246     0.05650
H594        H  0.36801741  0.71920320  0.11318764     0.05500
C595        C  0.17025489  0.94341512  0.20640755     0.02540
C596        C  0.19878967  0.94093921  0.18545842    -0.13610
C597        C  0.23046094  0.94716534  0.19697692     0.00040
C598        C  0.23357479  0.95553561  0.22992489    -0.12140
C599        C  0.20534093  0.95757778  0.25139271     0.02530
C600        C  0.17371884  0.95061386  0.23972516    -0.11560
H601        H  0.19631135  0.93690628  0.15935860     0.08120
H602        H  0.25794794  0.96240806  0.23820458     0.05650
H603        H  0.15175562  0.95303623  0.25586390     0.05500
C604        C  0.25444306  0.53070745  0.42223333     0.02540
C605        C  0.25218729  0.52346866  0.38885735    -0.13610
C606        C  0.22100906  0.51891281  0.37541448     0.00040
C607        C  0.19218723  0.52249008  0.39562825    -0.12140
C608        C  0.19415603  0.52956024  0.42917673     0.02530
C609        C  0.22546150  0.53432047  0.44208986    -0.11560
H610        H  0.27458330  0.51903476  0.37417011     0.08120
H611        H  0.16804161  0.51693835  0.38612303     0.05650
H612        H  0.22724292  0.53723827  0.46850603     0.05500
C613        C  0.00825535  0.62413264  0.26927811     0.02540
C614        C  0.99864671  0.65652230  0.27246831    -0.13610
C615        C  0.99368740  0.66815556  0.30428171     0.00040
C616        C  0.99857362  0.64697382  0.33272282    -0.12140
C617        C  0.00892731  0.61474342  0.32974971     0.02530
C618        C  0.01459196  0.60391508  0.29780301    -0.11560
H619        H  0.99355773  0.67200697  0.25035593     0.08120
H620        H  0.99268937  0.65512837  0.35724128     0.05650
H621        H  0.02108071  0.57864563  0.29517431     0.05500
C622        C  0.43300507  0.84187855  0.36016284     0.02540
C623        C  0.44161629  0.80923273  0.35560512    -0.13610
C624        C  0.45027019  0.79977797  0.32350725     0.00040
C625        C  0.44769575  0.82231244  0.29567455    -0.12140
C626        C  0.43653312  0.85404231  0.29943422     0.02530
C627        C  0.43025672  0.86386256  0.33166194    -0.11560
H628        H  0.44201041  0.79119609  0.37683428     0.08120
H629        H  0.45455717  0.81511187  0.27097635     0.05650
H630        H  0.42344816  0.88897887  0.33445440     0.05500
O631        O  0.02183247  0.91098314  0.01450000    -0.87080
O632        O  0.42972511  0.96535403  0.16973616    -0.87250
O633        O  0.03046658  0.93094292  0.12898214    -0.88920
O634        O  0.44017514  0.87964784  0.10085198    -0.87670
O635        O  0.39532591  0.89482960  0.07137367    -0.87260
O636        O  0.05394540  0.98357363  0.11699143    -0.88630
O637        O  0.45815924  0.92016431  0.15633073    -0.87110
O638        O  0.01348209  0.89141162  0.06936469    -0.86700
Zr639      Zr  0.47936680  0.92823843  0.09899520     2.84310
O640        O  0.42667462  0.94961227  0.10069033    -1.08670
O641        O  0.01600989  0.96179158  0.06216673    -1.09400
C642        C  0.02491072  0.88909251  0.03916340     1.06030
C643        C  0.44118963  0.93653590  0.17668437     1.05970
C644        C  0.05321001  0.95407360  0.13162893     1.08950
C645        C  0.41118097  0.87404554  0.08943393     1.06730
H646        H  0.49107156  0.98078967  0.13975002     0.32290
O647        O  0.48296893  0.98152336  0.11756018    -1.29630
H648        H  0.45723313  0.90740749  0.03878653     0.31960
O649        O  0.45872106  0.92958756  0.04585491    -1.31310
O650        O  0.40413363  0.55668655  0.11217818    -0.87080
O651        O  0.49666880  0.00146563  0.45797377    -0.88570
O652        O  0.01550272  0.54722151  0.12998841    -0.87150
O653        O  0.35646390  0.95355132  0.08525215    -0.87200
O654        O  0.40884537  0.92036882  0.99743323    -0.86910
O655        O  0.06856607  0.51365563  0.04186860    -0.86720
O656        O  0.48512354  0.58657939  0.02708792    -0.87090
O657        O  0.39526483  0.53448330  0.99779829    -0.86550
O658        O  0.02958288  0.57182941  0.05742521    -0.87620
O659        O  0.37076294  0.98279465  0.01187897    -0.86780
O660        O  0.46248904  0.53730459  0.15267375    -0.87170
O661        O  0.05239081  0.98330642  0.99920816    -0.86900
O662        O  0.46240430  0.92914965  0.47471815    -0.86550
O663        O  0.37209982  0.98473204  0.12756493    -0.86950
O664        O  0.41317610  0.57508526  0.05721530    -0.87250
O665        O  0.46869366  0.54700503  0.47107104    -0.88590
Zr666      Zr  0.43019752  0.00301405  0.11851622     2.83100
Zr667      Zr  0.49480471  0.96363993  0.00890492     2.83500
Zr668      Zr  0.01928583  0.51523793  0.08047745     2.84090
Zr669      Zr  0.40601416  0.95118681  0.04747663     2.83360
Zr670      Zr  0.44628364  0.53786494  0.02808111     2.84220
O671        O  0.44190740  0.98471621  0.00957975    -1.09160
O672        O  0.46652258  0.53673844  0.08154382    -1.08660
C673        C  0.40137283  0.57818310  0.08697900     1.06000
C674        C  0.48631803  0.53073884  0.45114877     1.08620
C675        C  0.49210679  0.55096156  0.15244990     1.06170
C676        C  0.35051556  0.96759350  0.11257912     1.06530
C677        C  0.43251491  0.91600946  0.47550160     1.06110
C678        C  0.07408322  0.00061916  0.01383683     1.05670
C679        C  0.01382334  0.59240400  0.03904608     1.06090
C680        C  0.37160231  0.51194149  0.99649871     1.05610
H681        H  0.01369783  0.53073990  0.01209528     0.32280
O682        O  0.49875435  0.51665650  0.02723125    -1.30260
H683        H  0.38782337  0.51363378  0.06556271     0.32310
O684        O  0.40954937  0.00470772  0.06514117    -1.31640
C685        C  0.43270335  0.87737524  0.26965694    -0.06720
C686        C  0.44772151  0.90963195  0.26826221    -0.17850
C687        C  0.44885711  0.93082182  0.23886833     0.10480
C688        C  0.43459147  0.91959549  0.21023902    -0.06640
C689        C  0.41798723  0.88823554  0.21228586    -0.17880
C690        C  0.41606672  0.86746128  0.24170443     0.10510
S691        S  0.47060776  0.97081245  0.23895725    -0.32840
S692        S  0.39182303  0.82878535  0.24176409    -0.32850
H693        H  0.38180737  0.82682897  0.27592685     0.28520
H694        H  0.48418707  0.97236471  0.20594020     0.28520
H695        H  0.46027023  0.91776301  0.28958673     0.19110
H696        H  0.40705121  0.87946995  0.19040836     0.19110
C697        C  0.42808235  0.85451451  0.39398942    -0.06720
C698        C  0.40282493  0.87671248  0.39903459    -0.17850
C699        C  0.40250266  0.89659209  0.42598284     0.10480
C700        C  0.42661330  0.89277788  0.44984594    -0.06640
C701        C  0.44930292  0.86809489  0.44704697    -0.17880
C702        C  0.45077249  0.84926849  0.41941747     0.10510
S703        S  0.37292681  0.92828944  0.42644964    -0.32840
S704        S  0.48451888  0.82206467  0.41605980    -0.32850
H705        H  0.49326856  0.82134691  0.44950690     0.28520
H706        H  0.39380778  0.95221608  0.43963044     0.28520
H707        H  0.38462395  0.88048095  0.38043392     0.19110
H708        H  0.46763787  0.86522748  0.46565879     0.19110
C709        C  0.49819561  0.57220401  0.18065150    -0.06720
C710        C  0.47036387  0.57770675  0.20187065    -0.17850
C711        C  0.47315763  0.59496676  0.23017760     0.10480
C712        C  0.00441938  0.60852749  0.23772000    -0.06640
C713        C  0.03226920  0.60468552  0.21626908    -0.17880
C714        C  0.02960914  0.58672129  0.18789441     0.10510
S715        S  0.43550704  0.59830622  0.25577287    -0.32840
S716        S  0.06723402  0.58339267  0.16261281    -0.32850
H717        H  0.06440649  0.54871875  0.16517943     0.28520
H718        H  0.44971501  0.59488418  0.28685440     0.28520
H719        H  0.44576296  0.56783568  0.19707305     0.19110
H720        H  0.05636856  0.61507022  0.22212218     0.19110
C721        C  0.00851935  0.59079324  0.35972273    -0.06720
C722        C  0.49006517  0.56034575  0.35942801    -0.17850
C723        C  0.48372765  0.53917393  0.38852500     0.10480
C724        C  0.49622230  0.54847168  0.41865709    -0.06640
C725        C  0.01610470  0.57789331  0.41869592    -0.17880
C726        C  0.02291208  0.59879221  0.38957556     0.10510
S727        S  0.45797851  0.50183351  0.38588102    -0.32840
S728        S  0.05017695  0.63506095  0.39231904    -0.32850
H729        H  0.06233986  0.63733807  0.35875267     0.28520
H730        H  0.44264068  0.00054880  0.41818355     0.28520
H731        H  0.47876545  0.55383752  0.33681228     0.19110
H732        H  0.02607084  0.58486425  0.44182901     0.19110
C733        C  0.46206837  0.76636700  0.31857895    -0.06720
C734        C  0.44333161  0.74536421  0.29969138    -0.17850
C735        C  0.45277981  0.71330944  0.29474852     0.10480
C736        C  0.48209850  0.70186251  0.30843897    -0.06640
C737        C  0.00098483  0.72304035  0.32702214    -0.17880
C738        C  0.49169138  0.75516374  0.33172889     0.10510
S739        S  0.42539485  0.68776965  0.27230493    -0.32840
S740        S  0.51981635  0.78095974  0.35312561    -0.32850
H741        H  0.51233672  0.81114154  0.33642412     0.28520
H742        H  0.42902034  0.65887763  0.29313219     0.28520
H743        H  0.42066987  0.75376626  0.28936224     0.19110
H744        H  0.02371262  0.71472279  0.33727828     0.19110
C745        C  0.10719618  0.50664793  0.49572349    -0.06720
C746        C  0.12507127  0.53725455  0.99675017    -0.17850
C747        C  0.15339901  0.54595243  0.47527790     0.10480
C748        C  0.16414593  0.52357306  0.45223864    -0.06640
C749        C  0.14709286  0.49266318  0.45236971    -0.17880
C750        C  0.11941022  0.98383238  0.47385542     0.10510
S751        S  0.17373721  0.58624816  0.97765141    -0.32840
S752        S  0.10168021  0.94244437  0.47236108    -0.32850
H753        H  0.09403287  0.93750758  0.50700921     0.28520
H754        H  0.18539867  0.59061396  0.44395521     0.28520
H755        H  0.11609738  0.55512709  0.01320684     0.19110
H756        H  0.15596945  0.97468555  0.43594796     0.19110
C757        C  0.28585973  0.52666447  0.43871626    -0.06720
C758        C  0.30330360  0.55435264  0.44937496    -0.17850
C759        C  0.33156326  0.55082130  0.46800158     0.10480
C760        C  0.34300827  0.51882133  0.47565718    -0.06640
C761        C  0.32555977  0.99142275  0.46414357    -0.17880
C762        C  0.29718442  0.49487440  0.44628413     0.10510
S763        S  0.35021234  0.58777100  0.48288859    -0.32840
S764        S  0.27600746  0.95743541  0.43488213    -0.32850
H765        H  0.24353634  0.96760190  0.44030778     0.28520
H766        H  0.35194909  0.57375682  0.01584466     0.28520
H767        H  0.29419998  0.57873640  0.44406705     0.19110
H768        H  0.33346232  0.96667342  0.46991434     0.19110
C769        C  0.08037775  0.94758322  0.15395095    -0.06720
C770        C  0.08915925  0.97247702  0.17460060    -0.17850
C771        C  0.11780861  0.97149842  0.19238487     0.10480
C772        C  0.13745882  0.94372600  0.19147524    -0.06640
C773        C  0.12740582  0.91754619  0.17263410    -0.17880
C774        C  0.09942320  0.91941662  0.15340465     0.10510
S775        S  0.12931769  0.50814379  0.21270792    -0.32840
S776        S  0.09087865  0.88640909  0.12705529    -0.32850
H777        H  0.08230656  0.90709028  0.09949239     0.28520
H778        H  0.16317801  0.00895356  0.20211073     0.28520
H779        H  0.07439836  0.99389110  0.17548346     0.19110
H780        H  0.14247887  0.89630376  0.17152048     0.19110
C781        C  0.31666978  0.96373205  0.12902885    -0.06720
C782        C  0.29914292  0.93272580  0.13164787    -0.17850
C783        C  0.27098886  0.92619348  0.15373602     0.10480
C784        C  0.25972007  0.95149691  0.17301192    -0.06640
C785        C  0.27572507  0.98306569  0.16827882    -0.17880
C786        C  0.30344892  0.98957621  0.14620253     0.10510
S787        S  0.25172549  0.88487041  0.15730794    -0.32840
S788        S  0.32001761  0.53179086  0.14028827    -0.32850
H789        H  0.33133895  0.53021154  0.10678312     0.28520
H790        H  0.24032153  0.88480821  0.19094320     0.28520
H791        H  0.30836533  0.91302406  0.11776138     0.19110
H792        H  0.26619985  0.00305273  0.18165639     0.19110
C793        C  0.21818262  0.50481617  0.34259129    -0.06720
C794        C  0.23386911  0.97539606  0.33730100    -0.17850
C795        C  0.22930906  0.95884072  0.30847907     0.10480
C796        C  0.20876602  0.97196664  0.28393049    -0.06640
C797        C  0.19320153  0.00142931  0.28913073    -0.17880
C798        C  0.19793085  0.51811070  0.31782849     0.10510
S799        S  0.24949754  0.92055722  0.30512257    -0.32840
S800        S  0.17846949  0.55685711  0.32063003    -0.32850
H801        H  0.20281631  0.57137531  0.33952681     0.28520
H802        H  0.22537620  0.90572776  0.28619493     0.28520
H803        H  0.24894689  0.96456141  0.35634405     0.19110
H804        H  0.17809569  0.01218698  0.27008830     0.19110
C805        C  0.34097502  0.66187272  0.09780529    -0.06720
C806        C  0.36260026  0.66098311  0.06966956    -0.17850
C807        C  0.38391306  0.63536343  0.06634830     0.10480
C808        C  0.38254001  0.60840127  0.09142541    -0.06640
C809        C  0.36141080  0.60996212  0.12023798    -0.17880
C810        C  0.34051836  0.63625254  0.12363695     0.10510
S811        S  0.41414191  0.63975329  0.03097638    -0.32840
S812        S  0.31483951  0.63595774  0.16177453    -0.32850
H813        H  0.29186663  0.65822707  0.14999519     0.28520
H814        H  0.40293090  0.66867163  0.01472720     0.28520
H815        H  0.36356746  0.68148587  0.05065189     0.19110
H816        H  0.36102875  0.59056910  0.14029420     0.19110
C817        C  0.39425652  0.84121077  0.09683357    -0.06720
C818        C  0.40331811  0.81609041  0.07681617    -0.17850
C819        C  0.38341533  0.78685245  0.07675738     0.10480
C820        C  0.35391740  0.78228858  0.09766808    -0.06640
C821        C  0.34557510  0.80687765  0.11866916    -0.17880
C822        C  0.36538004  0.83624671  0.11853966     0.10510
S823        S  0.39587203  0.75754510  0.04766871    -0.32840
S824        S  0.35179571  0.86628363  0.14634316    -0.32850
H825        H  0.37849376  0.88992046  0.14021029     0.28520
H826        H  0.36347857  0.74790540  0.03955568     0.28520
H827        H  0.42479268  0.82019230  0.05936431     0.19110
H828        H  0.32317969  0.80333028  0.13496539     0.19110
C829        C  0.07192786  0.68360945  0.02098705    -0.06720
C830        C  0.04392422  0.68139058  0.04360486    -0.17850
C831        C  0.02348559  0.65237492  0.04909839     0.10480
C832        C  0.03087461  0.62499211  0.03110758    -0.06640
C833        C  0.05817129  0.62743877  0.00774317    -0.17880
C834        C  0.07853533  0.65653249  0.50219948     0.10510
S835        S  0.48958730  0.65183411  0.08046948    -0.32840
S836        S  0.11233199  0.65752246  0.47087880    -0.32850
H837        H  0.11284001  0.69174801  0.46205181     0.28520
H838        H  0.48337628  0.61748910  0.08631739     0.28520
H839        H  0.03873669  0.70203330  0.05821536     0.19110
H840        H  0.06394957  0.60629183  0.99407689     0.19110
C841        C  0.04298948  0.85895778  0.03279754    -0.06720
C842        C  0.06671155  0.85986635  0.00571335    -0.17850
C843        C  0.08610126  0.83288438  0.50029193     0.10480
C844        C  0.08170664  0.80413422  0.02245269    -0.06640
C845        C  0.05764813  0.80286950  0.04898846    -0.17880
C846        C  0.03780691  0.82926470  0.05392618     0.10510
S847        S  0.11551831  0.83666025  0.46465559    -0.32840
S848        S  0.00478540  0.82188974  0.08610269    -0.32850
H849        H  0.48113106  0.83710327  0.06655590     0.28520
H850        H  0.11564375  0.80277271  0.45985912     0.28520
H851        H  0.07001826  0.88157232  0.48841063     0.19110
H852        H  0.05359476  0.78048277  0.06559804     0.19110
C853        C  0.18112900  0.73870113  0.04421576    -0.06720
C854        C  0.20338644  0.71872577  0.02820667    -0.17850
C855        C  0.23550157  0.71472282  0.03911674     0.10480
C856        C  0.24578081  0.73049610  0.06734364    -0.06580
C857        C  0.22365300  0.75070418  0.08311145    -0.17880
C858        C  0.19156636  0.75465405  0.07228563     0.10510
S859        S  0.26237344  0.69035597  0.01492198    -0.32840
S860        S  0.16479043  0.77877361  0.09685586    -0.32850
H861        H  0.13585330  0.75845123  0.09426452     0.28520
H862        H  0.29181157  0.70924956  0.01938362     0.28520
H863        H  0.19585205  0.70654079  0.00656562     0.19110
H864        H  0.23110034  0.76276231  0.10485958     0.19110
C865        C  0.09966100  0.77381736  0.01846066     0.02540
C866        C  0.13316808  0.77223070  0.52598496    -0.13610
C867        C  0.14712078  0.74131420  0.53172826     0.00040
C868        C  0.12749491  0.71225170  0.52799307    -0.12140
C869        C  0.09430455  0.71386070  0.01933061     0.02530
C870        C  0.08084206  0.74469568  0.01417626    -0.11560
H871        H  0.14757222  0.79481750  0.52956577     0.08120
H872        H  0.13742757  0.68831368  0.53373217     0.05650
H873        H  0.05475196  0.74595011  0.00916329     0.05500
C874        C  0.32355876  0.69267629  0.60019954     0.02540
C875        C  0.29150428  0.69541546  0.58851126    -0.13610
C876        C  0.27910677  0.72680897  0.58110869     0.00040
C877        C  0.29914546  0.75525677  0.58598243    -0.12140
C878        C  0.33119351  0.75255066  0.59750772     0.02530
C879        C  0.34277363  0.72127950  0.60553281    -0.11560
H880        H  0.27695941  0.67324791  0.58380705     0.08120
H881        H  0.29045095  0.77955373  0.57922247     0.05650
H882        H  0.36801740  0.71920320  0.61318764     0.05500
C883        C  0.17025489  0.94341513  0.70640754     0.02540
C884        C  0.19878967  0.94093921  0.68545841    -0.13610
C885        C  0.23046093  0.94716534  0.69697691     0.00040
C886        C  0.23357479  0.95553562  0.72992488    -0.12140
C887        C  0.20534093  0.95757779  0.75139270     0.02530
C888        C  0.17371884  0.95061387  0.73972516    -0.11560
H889        H  0.19631135  0.93690628  0.65935859     0.08120
H890        H  0.25794794  0.96240807  0.73820456     0.05650
H891        H  0.15175561  0.95303624  0.75586389     0.05500
C892        C  0.25444306  0.53070744  0.92223332     0.02540
C893        C  0.25218729  0.52346865  0.88885735    -0.13610
C894        C  0.22100906  0.51891279  0.87541448     0.00040
C895        C  0.19218723  0.52249006  0.89562825    -0.12140
C896        C  0.19415604  0.52956023  0.92917674     0.02530
C897        C  0.22546151  0.53432046  0.94208986    -0.11560
H898        H  0.27458330  0.51903476  0.87417010     0.08120
H899        H  0.16804161  0.51693832  0.88612304     0.05650
H900        H  0.22724293  0.53723827  0.96850602     0.05500
C901        C  0.00825535  0.62413265  0.76927811     0.02540
C902        C  0.99864671  0.65652230  0.77246831    -0.13610
C903        C  0.99368741  0.66815556  0.80428171     0.00040
C904        C  0.99857363  0.64697383  0.83272282    -0.12140
C905        C  0.00892731  0.61474343  0.82974971     0.02530
C906        C  0.01459197  0.60391508  0.79780301    -0.11560
H907        H  0.99355773  0.67200698  0.75035593     0.08120
H908        H  0.99268938  0.65512837  0.85724128     0.05650
H909        H  0.02108071  0.57864564  0.79517431     0.05500
C910        C  0.43300507  0.84187855  0.86016284     0.02540
C911        C  0.44161628  0.80923274  0.85560512    -0.13610
C912        C  0.45027019  0.79977798  0.82350725     0.00040
C913        C  0.44769575  0.82231244  0.79567455    -0.12140
C914        C  0.43653312  0.85404231  0.79943422     0.02530
C915        C  0.43025672  0.86386257  0.83166194    -0.11560
H916        H  0.44201040  0.79119609  0.87683428     0.08120
H917        H  0.45455717  0.81511187  0.77097635     0.05650
H918        H  0.42344815  0.88897887  0.83445440     0.05500
O919        O  0.02183247  0.91098315  0.51450000    -0.87080
O920        O  0.42972510  0.96535404  0.66973616    -0.87250
O921        O  0.03046657  0.93094292  0.62898214    -0.88920
O922        O  0.44017514  0.87964784  0.60085198    -0.87670
O923        O  0.39532591  0.89482960  0.57137367    -0.87260
O924        O  0.05394539  0.98357364  0.61699142    -0.88630
O925        O  0.45815924  0.92016431  0.65633073    -0.87110
O926        O  0.01348208  0.89141163  0.56936469    -0.86700
Zr927      Zr  0.47936680  0.92823843  0.59899520     2.84310
O928        O  0.42667462  0.94961227  0.60069033    -1.08670
O929        O  0.01600989  0.96179158  0.56216673    -1.09400
C930        C  0.02491072  0.88909251  0.53916340     1.06030
C931        C  0.44118963  0.93653591  0.67668437     1.05970
C932        C  0.05321001  0.95407360  0.63162893     1.08950
C933        C  0.41118097  0.87404555  0.58943393     1.06730
H934        H  0.49107155  0.98078967  0.63975002     0.32290
O935        O  0.48296893  0.98152336  0.61756018    -1.29630
H936        H  0.45723313  0.90740749  0.53878653     0.31960
O937        O  0.45872106  0.92958756  0.54585491    -1.31310
O938        O  0.40413362  0.55668654  0.61217818    -0.87080
O939        O  0.49666880  0.00146563  0.95797377    -0.88570
O940        O  0.01550272  0.54722151  0.62998841    -0.87150
O941        O  0.35646389  0.95355132  0.58525214    -0.87200
O942        O  0.40884537  0.92036882  0.49743322    -0.86910
O943        O  0.06856607  0.51365564  0.54186860    -0.86720
O944        O  0.48512353  0.58657939  0.52708792    -0.87090
O945        O  0.39526483  0.53448330  0.49779830    -0.86550
O946        O  0.02958287  0.57182942  0.55742522    -0.87620
O947        O  0.37076293  0.98279465  0.51187897    -0.86780
O948        O  0.46248904  0.53730459  0.65267375    -0.87170
O949        O  0.05239081  0.98330643  0.49920815    -0.86900
O950        O  0.46240430  0.92914965  0.97471815    -0.86550
O951        O  0.37209982  0.98473204  0.62756492    -0.86950
O952        O  0.41317610  0.57508526  0.55721530    -0.87250
O953        O  0.46869367  0.54700503  0.97107104    -0.88590
Zr954      Zr  0.43019751  0.00301405  0.61851622     2.83100
Zr955      Zr  0.49480471  0.96363993  0.50890492     2.83500
Zr956      Zr  0.01928582  0.51523794  0.58047745     2.84090
Zr957      Zr  0.40601416  0.95118682  0.54747662     2.83360
Zr958      Zr  0.44628363  0.53786494  0.52808111     2.84220
O959        O  0.44190740  0.98471621  0.50957974    -1.09160
O960        O  0.46652257  0.53673844  0.58154382    -1.08660
C961        C  0.40137283  0.57818310  0.58697901     1.06000
C962        C  0.48631803  0.53073884  0.95114877     1.08620
C963        C  0.49210679  0.55096156  0.65244990     1.06170
C964        C  0.35051555  0.96759350  0.61257911     1.06530
C965        C  0.43251491  0.91600946  0.97550161     1.06110
C966        C  0.07408322  0.00061917  0.51383683     1.05670
C967        C  0.01382333  0.59240400  0.53904609     1.06090
C968        C  0.37160231  0.51194149  0.49649871     1.05610
H969        H  0.01369782  0.53073990  0.51209528     0.32280
O970        O  0.49875435  0.51665650  0.52723126    -1.30260
H971        H  0.38782336  0.51363378  0.56556271     0.32310
O972        O  0.40954937  0.00470772  0.56514116    -1.31640
C973        C  0.43270335  0.87737525  0.76965695    -0.06720
C974        C  0.44772150  0.90963195  0.76826221    -0.17850
C975        C  0.44885710  0.93082182  0.73886833     0.10480
C976        C  0.43459147  0.91959549  0.71023902    -0.06640
C977        C  0.41798722  0.88823554  0.71228586    -0.17880
C978        C  0.41606671  0.86746128  0.74170443     0.10510
S979        S  0.47060775  0.97081245  0.73895725    -0.32840
S980        S  0.39182303  0.82878535  0.74176409    -0.32850
H981        H  0.38180737  0.82682897  0.77592685     0.28520
H982        H  0.48418706  0.97236472  0.70594020     0.28520
H983        H  0.46027023  0.91776302  0.78958673     0.19110
H984        H  0.40705121  0.87946995  0.69040836     0.19110
C985        C  0.42808234  0.85451451  0.89398942    -0.06720
C986        C  0.40282493  0.87671249  0.89903459    -0.17850
C987        C  0.40250266  0.89659210  0.92598284     0.10480
C988        C  0.42661329  0.89277788  0.94984594    -0.06640
C989        C  0.44930291  0.86809489  0.94704698    -0.17880
C990        C  0.45077248  0.84926849  0.91941747     0.10510
S991        S  0.37292680  0.92828944  0.92644965    -0.32840
S992        S  0.48451887  0.82206466  0.91605980    -0.32850
H993        H  0.49326854  0.82134690  0.94950691     0.28520
H994        H  0.39380778  0.95221608  0.93963045     0.28520
H995        H  0.38462395  0.88048096  0.88043392     0.19110
H996        H  0.46763786  0.86522747  0.96565880     0.19110
C997        C  0.49819561  0.57220401  0.68065150    -0.06720
C998        C  0.47036386  0.57770674  0.70187066    -0.17850
C999        C  0.47315762  0.59496676  0.73017760     0.10480
C1000       C  0.00441938  0.60852750  0.73772000    -0.06640
C1001       C  0.03226920  0.60468553  0.71626908    -0.17880
C1002       C  0.02960914  0.58672130  0.68789441     0.10510
S1003       S  0.43550704  0.59830622  0.75577287    -0.32840
S1004       S  0.06723402  0.58339268  0.66261280    -0.32850
H1005       H  0.06440649  0.54871876  0.66517943     0.28520
H1006       H  0.44971501  0.59488419  0.78685441     0.28520
H1007       H  0.44576296  0.56783568  0.69707306     0.19110
H1008       H  0.05636856  0.61507023  0.72212218     0.19110
C1009       C  0.00851935  0.59079324  0.85972272    -0.06720
C1010       C  0.49006516  0.56034575  0.85942802    -0.17850
C1011       C  0.48372764  0.53917393  0.88852500     0.10480
C1012       C  0.49622230  0.54847169  0.91865709    -0.06640
C1013       C  0.01610471  0.57789331  0.91869591    -0.17880
C1014       C  0.02291209  0.59879221  0.88957556     0.10510
S1015       S  0.45797850  0.50183353  0.88588103    -0.32840
S1016       S  0.05017696  0.63506094  0.89231904    -0.32850
H1017       H  0.06233987  0.63733807  0.85875266     0.28520
H1018       H  0.44264069  0.00054880  0.91818354     0.28520
H1019       H  0.47876544  0.55383753  0.83681228     0.19110
H1020       H  0.02607086  0.58486424  0.94182900     0.19110
C1021       C  0.46206837  0.76636700  0.81857895    -0.06720
C1022       C  0.44333161  0.74536422  0.79969138    -0.17850
C1023       C  0.45277981  0.71330945  0.79474852     0.10480
C1024       C  0.48209850  0.70186251  0.80843897    -0.06640
C1025       C  0.00098483  0.72304036  0.82702214    -0.17880
C1026       C  0.49169138  0.75516375  0.83172889     0.10510
S1027       S  0.42539485  0.68776966  0.77230493    -0.32840
S1028       S  0.51981634  0.78095974  0.85312562    -0.32850
H1029       H  0.51233672  0.81114155  0.83642413     0.28520
H1030       H  0.42902034  0.65887764  0.79313218     0.28520
H1031       H  0.42066987  0.75376627  0.78936224     0.19110
H1032       H  0.02371262  0.71472280  0.83727829     0.19110
C1033       C  0.10719618  0.50664792  0.99572350    -0.06720
C1034       C  0.12507127  0.53725456  0.49675017    -0.17850
C1035       C  0.15339902  0.54595243  0.97527790     0.10480
C1036       C  0.16414593  0.52357305  0.95223865    -0.06640
C1037       C  0.14709288  0.49266316  0.95236974    -0.17880
C1038       C  0.11941022  0.98383238  0.97385542     0.10510
S1039       S  0.17373721  0.58624816  0.47765143    -0.32840
S1040       S  0.10168021  0.94244436  0.97236107    -0.32850
H1041       H  0.09403287  0.93750757  0.00700920     0.28520
H1042       H  0.18539867  0.59061395  0.94395519     0.28520
H1043       H  0.11609738  0.55512709  0.51320685     0.19110
H1044       H  0.15596945  0.97468555  0.93594795     0.19110
C1045       C  0.28585974  0.52666447  0.93871626    -0.06720
C1046       C  0.30330361  0.55435264  0.94937494    -0.17850
C1047       C  0.33156327  0.55082130  0.96800156     0.10480
C1048       C  0.34300827  0.51882133  0.97565717    -0.06640
C1049       C  0.32555976  0.99142274  0.96414360    -0.17880
C1050       C  0.29718442  0.49487440  0.94628413     0.10510
S1051       S  0.35021237  0.58777101  0.98288855    -0.32840
S1052       S  0.27600741  0.95743540  0.93488220    -0.32850
H1053       H  0.24353630  0.96760191  0.94030783     0.28520
H1054       H  0.35194907  0.57375679  0.51584470     0.28520
H1055       H  0.29420000  0.57873640  0.94406702     0.19110
H1056       H  0.33346229  0.96667341  0.96991438     0.19110
C1057       C  0.08037774  0.94758323  0.65395095    -0.06720
C1058       C  0.08915925  0.97247703  0.67460059    -0.17850
C1059       C  0.11780861  0.97149844  0.69238486     0.10480
C1060       C  0.13745882  0.94372601  0.69147523    -0.06640
C1061       C  0.12740581  0.91754619  0.67263411    -0.17880
C1062       C  0.09942319  0.91941662  0.65340466     0.10510
S1063       S  0.12931771  0.50814379  0.71270790    -0.32840
S1064       S  0.09087863  0.88640908  0.62705531    -0.32850
H1065       H  0.08230655  0.90709027  0.59949241     0.28520
H1066       H  0.16317803  0.00895357  0.70211071     0.28520
H1067       H  0.07439837  0.99389112  0.67548344     0.19110
H1068       H  0.14247886  0.89630376  0.67152050     0.19110
C1069       C  0.31666977  0.96373206  0.62902884    -0.06720
C1070       C  0.29914291  0.93272580  0.63164786    -0.17850
C1071       C  0.27098885  0.92619348  0.65373601     0.10480
C1072       C  0.25972007  0.95149691  0.67301191    -0.06640
C1073       C  0.27572506  0.98306569  0.66827881    -0.17880
C1074       C  0.30344891  0.98957621  0.64620252     0.10510
S1075       S  0.25172548  0.88487041  0.65730793    -0.32840
S1076       S  0.32001760  0.53179085  0.64028826    -0.32850
H1077       H  0.33133894  0.53021153  0.60678312     0.28520
H1078       H  0.24032153  0.88480821  0.69094320     0.28520
H1079       H  0.30836533  0.91302406  0.61776138     0.19110
H1080       H  0.26619984  0.00305273  0.68165638     0.19110
C1081       C  0.21818262  0.50481616  0.84259129    -0.06720
C1082       C  0.23386911  0.97539606  0.83730099    -0.17850
C1083       C  0.22930906  0.95884073  0.80847906     0.10480
C1084       C  0.20876602  0.97196665  0.78393049    -0.06640
C1085       C  0.19320153  0.00142932  0.78913073    -0.17880
C1086       C  0.19793084  0.51811068  0.81782849     0.10510
S1087       S  0.24949755  0.92055723  0.80512255    -0.32840
S1088       S  0.17846946  0.55685708  0.82063004    -0.32850
H1089       H  0.20281628  0.57137529  0.83952682     0.28520
H1090       H  0.22537621  0.90572777  0.78619492     0.28520
H1091       H  0.24894690  0.96456142  0.85634404     0.19110
H1092       H  0.17809569  0.01218699  0.77008830     0.19110
C1093       C  0.34097502  0.66187273  0.59780529    -0.06720
C1094       C  0.36260027  0.66098311  0.56966957    -0.17850
C1095       C  0.38391307  0.63536344  0.56634830     0.10480
C1096       C  0.38254001  0.60840127  0.59142542    -0.06640
C1097       C  0.36141080  0.60996211  0.62023798    -0.17880
C1098       C  0.34051836  0.63625254  0.62363695     0.10510
S1099       S  0.41414193  0.63975330  0.53097640    -0.32840
S1100       S  0.31483950  0.63595774  0.66177452    -0.32850
H1101       H  0.29186663  0.65822709  0.64999519     0.28520
H1102       H  0.40293091  0.66867163  0.51472722     0.28520
H1103       H  0.36356747  0.68148588  0.55065190     0.19110
H1104       H  0.36102873  0.59056909  0.64029419     0.19110
C1105       C  0.39425652  0.84121078  0.59683357    -0.06720
C1106       C  0.40331810  0.81609042  0.57681617    -0.17850
C1107       C  0.38341533  0.78685245  0.57675739     0.10480
C1108       C  0.35391740  0.78228859  0.59766808    -0.06640
C1109       C  0.34557510  0.80687766  0.61866917    -0.17880
C1110       C  0.36538004  0.83624671  0.61853966     0.10510
S1111       S  0.39587203  0.75754510  0.54766871    -0.32840
S1112       S  0.35179570  0.86628363  0.64634316    -0.32850
H1113       H  0.37849376  0.88992046  0.64021029     0.28520
H1114       H  0.36347857  0.74790540  0.53955568     0.28520
H1115       H  0.42479268  0.82019230  0.55936431     0.19110
H1116       H  0.32317969  0.80333028  0.63496540     0.19110
C1117       C  0.07192785  0.68360945  0.52098706    -0.06720
C1118       C  0.04392423  0.68139058  0.54360488    -0.17850
C1119       C  0.02348559  0.65237492  0.54909841     0.10480
C1120       C  0.03087460  0.62499211  0.53110759    -0.06640
C1121       C  0.05817127  0.62743878  0.50774316    -0.17880
C1122       C  0.07853535  0.65653248  0.00219948     0.10510
S1123       S  0.48958732  0.65183412  0.58046953    -0.32840
S1124       S  0.11233202  0.65752245  0.97087880    -0.32850
H1125       H  0.11284003  0.69174800  0.96205180     0.28520
H1126       H  0.48337597  0.61748913  0.58631715     0.28520
H1127       H  0.03873670  0.70203329  0.55821540     0.19110
H1128       H  0.06394954  0.60629184  0.49407688     0.19110
C1129       C  0.04298948  0.85895778  0.53279754    -0.06720
C1130       C  0.06671155  0.85986635  0.50571335    -0.17850
C1131       C  0.08610126  0.83288438  0.00029193     0.10480
C1132       C  0.08170663  0.80413422  0.52245269    -0.06640
C1133       C  0.05764813  0.80286950  0.54898846    -0.17880
C1134       C  0.03780690  0.82926470  0.55392619     0.10510
S1135       S  0.11551830  0.83666025  0.96465559    -0.32840
S1136       S  0.00478539  0.82188975  0.58610269    -0.32850
H1137       H  0.48113105  0.83710328  0.56655590     0.28520
H1138       H  0.11564375  0.80277271  0.95985912     0.28520
H1139       H  0.07001826  0.88157232  0.98841063     0.19110
H1140       H  0.05359475  0.78048277  0.56559804     0.19110
C1141       C  0.18112900  0.73870113  0.54421576    -0.06720
C1142       C  0.20338643  0.71872577  0.52820668    -0.17850
C1143       C  0.23550157  0.71472282  0.53911674     0.10480
C1144       C  0.24578081  0.73049610  0.56734365    -0.06580
C1145       C  0.22365300  0.75070418  0.58311146    -0.17880
C1146       C  0.19156636  0.75465405  0.57228564     0.10510
S1147       S  0.26237344  0.69035597  0.51492198    -0.32840
S1148       S  0.16479043  0.77877361  0.59685587    -0.32850
H1149       H  0.13585329  0.75845123  0.59426452     0.28520
H1150       H  0.29181157  0.70924956  0.51938363     0.28520
H1151       H  0.19585205  0.70654080  0.50656563     0.19110
H1152       H  0.23110034  0.76276230  0.60485959     0.19110
C1153       C  0.59966100  0.27381736  0.51846068     0.02540
C1154       C  0.63316808  0.27223070  0.02598497    -0.13610
C1155       C  0.64712078  0.24131420  0.03172827     0.00040
C1156       C  0.62749492  0.21225170  0.02799307    -0.12140
C1157       C  0.59430455  0.21386069  0.51933063     0.02530
C1158       C  0.58084205  0.24469567  0.51417628    -0.11560
H1159       H  0.64757222  0.29481749  0.02956577     0.08120
H1160       H  0.63742757  0.18831367  0.03373218     0.05650
H1161       H  0.55475195  0.24595011  0.50916331     0.05500
C1162       C  0.82355876  0.19267628  0.10019954     0.02540
C1163       C  0.79150428  0.19541546  0.08851126    -0.13610
C1164       C  0.77910678  0.22680897  0.08110868     0.00040
C1165       C  0.79914546  0.25525677  0.08598242    -0.12140
C1166       C  0.83119352  0.25255066  0.09750771     0.02530
C1167       C  0.84277364  0.22127950  0.10553281    -0.11560
H1168       H  0.77695941  0.17324790  0.08380706     0.08120
H1169       H  0.79045095  0.27955373  0.07922246     0.05650
H1170       H  0.86801741  0.21920320  0.11318764     0.05500
C1171       C  0.67025489  0.44341515  0.20640754     0.02540
C1172       C  0.69878967  0.44093923  0.18545841    -0.13610
C1173       C  0.73046094  0.44716537  0.19697691     0.00040
C1174       C  0.73357480  0.45553565  0.22992488    -0.12140
C1175       C  0.70534093  0.45757782  0.25139270     0.02530
C1176       C  0.67371884  0.45061390  0.23972516    -0.11560
H1177       H  0.69631135  0.43690630  0.15935859     0.08120
H1178       H  0.75794795  0.46240810  0.23820456     0.05650
H1179       H  0.65175562  0.45303626  0.25586389     0.05500
C1180       C  0.75444306  0.03070745  0.42223333     0.02540
C1181       C  0.75218729  0.02346865  0.38885735    -0.13610
C1182       C  0.72100906  0.01891279  0.37541448     0.00040
C1183       C  0.69218723  0.02249006  0.39562826    -0.12140
C1184       C  0.69415603  0.02956023  0.42917674     0.02530
C1185       C  0.72546150  0.03432046  0.44208986    -0.11560
H1186       H  0.77458330  0.01903475  0.37417011     0.08120
H1187       H  0.66804160  0.01693833  0.38612304     0.05650
H1188       H  0.72724292  0.03723828  0.46850603     0.05500
C1189       C  0.50825534  0.12413265  0.26927811     0.02540
C1190       C  0.49864670  0.15652230  0.27246831    -0.13610
C1191       C  0.49368740  0.16815556  0.30428171     0.00040
C1192       C  0.49857361  0.14697383  0.33272282    -0.12140
C1193       C  0.50892730  0.11474343  0.32974972     0.02530
C1194       C  0.51459195  0.10391508  0.29780302    -0.11560
H1195       H  0.49355772  0.17200698  0.25035593     0.08120
H1196       H  0.49268936  0.15512837  0.35724129     0.05650
H1197       H  0.52108070  0.07864563  0.29517431     0.05500
C1198       C  0.93300507  0.34187855  0.36016284     0.02540
C1199       C  0.94161628  0.30923274  0.35560511    -0.13610
C1200       C  0.95027019  0.29977798  0.32350724     0.00040
C1201       C  0.94769576  0.32231244  0.29567455    -0.12140
C1202       C  0.93653313  0.35404231  0.29943421     0.02530
C1203       C  0.93025672  0.36386257  0.33166193    -0.11560
H1204       H  0.94201040  0.29119609  0.37683427     0.08120
H1205       H  0.95455718  0.31511187  0.27097635     0.05650
H1206       H  0.92344815  0.38897887  0.33445439     0.05500
O1207       O  0.52183248  0.41098314  0.01450000    -0.87080
O1208       O  0.92972510  0.46535404  0.16973616    -0.87250
O1209       O  0.53046657  0.43094292  0.12898214    -0.88920
O1210       O  0.94017514  0.37964784  0.10085197    -0.87670
O1211       O  0.89532591  0.39482960  0.07137366    -0.87260
O1212       O  0.55394539  0.48357364  0.11699143    -0.88630
O1213       O  0.95815924  0.42016431  0.15633072    -0.87110
O1214       O  0.51348209  0.39141162  0.06936469    -0.86700
Zr1215     Zr  0.97936680  0.42823843  0.09899519     2.84310
O1216       O  0.92667462  0.44961227  0.10069032    -1.08670
O1217       O  0.51600989  0.46179158  0.06216673    -1.09400
C1218       C  0.52491072  0.38909251  0.03916341     1.06030
C1219       C  0.94118963  0.43653590  0.17668436     1.05970
C1220       C  0.55321001  0.45407360  0.13162893     1.08950
C1221       C  0.91118097  0.37404555  0.08943392     1.06730
H1222       H  0.99107156  0.48078967  0.13975002     0.32290
O1223       O  0.98296894  0.48152335  0.11756018    -1.29630
H1224       H  0.95723313  0.40740749  0.03878653     0.31960
O1225       O  0.95872106  0.42958755  0.04585490    -1.31310
O1226       O  0.90413363  0.05668654  0.11217818    -0.87080
O1227       O  0.99666880  0.50146563  0.45797377    -0.88570
O1228       O  0.51550272  0.04722151  0.12998841    -0.87150
O1229       O  0.85646390  0.45355132  0.08525214    -0.87200
O1230       O  0.90884537  0.42036883  0.99743321    -0.86910
O1231       O  0.56856607  0.01365564  0.04186860    -0.86720
O1232       O  0.98512354  0.08657939  0.02708793    -0.87090
O1233       O  0.89526484  0.03448330  0.99779829    -0.86550
O1234       O  0.52958287  0.07182942  0.05742523    -0.87620
O1235       O  0.87076294  0.48279466  0.01187896    -0.86780
O1236       O  0.96248905  0.03730458  0.15267375    -0.87170
O1237       O  0.55239081  0.48330643  0.99920815    -0.86900
O1238       O  0.96240430  0.42914965  0.47471815    -0.86550
O1239       O  0.87209982  0.48473205  0.12756491    -0.86950
O1240       O  0.91317610  0.07508525  0.05721531    -0.87250
O1241       O  0.96869366  0.04700503  0.47107105    -0.88590
Zr1242     Zr  0.93019752  0.50301405  0.11851621     2.83100
Zr1243     Zr  0.99480471  0.46363993  0.00890492     2.83500
Zr1244     Zr  0.51928583  0.01523794  0.08047745     2.84090
Zr1245     Zr  0.90601416  0.45118682  0.04747662     2.83360
Zr1246     Zr  0.94628364  0.03786494  0.02808111     2.84220
O1247       O  0.94190740  0.48471621  0.00957974    -1.09160
O1248       O  0.96652258  0.03673843  0.08154383    -1.08660
C1249       C  0.90137283  0.07818310  0.08697901     1.06000
C1250       C  0.98631803  0.03073884  0.45114877     1.08620
C1251       C  0.99210680  0.05096155  0.15244990     1.06170
C1252       C  0.85051555  0.46759351  0.11257910     1.06530
C1253       C  0.93251491  0.41600946  0.47550160     1.06110
C1254       C  0.57408322  0.50061916  0.01383682     1.05670
C1255       C  0.51382333  0.09240400  0.03904609     1.06090
C1256       C  0.87160232  0.01194149  0.99649871     1.05610
H1257       H  0.51369782  0.03073990  0.01209528     0.32280
O1258       O  0.99875435  0.01665650  0.02723126    -1.30260
H1259       H  0.88782337  0.01363378  0.06556271     0.32310
O1260       O  0.90954937  0.50470773  0.06514116    -1.31640
C1261       C  0.93270335  0.37737524  0.26965694    -0.06720
C1262       C  0.94772150  0.40963195  0.26826221    -0.17850
C1263       C  0.94885709  0.43082183  0.23886832     0.10480
C1264       C  0.93459147  0.41959549  0.21023901    -0.06640
C1265       C  0.91798723  0.38823554  0.21228585    -0.17880
C1266       C  0.91606672  0.36746128  0.24170443     0.10510
S1267       S  0.97060774  0.47081246  0.23895725    -0.32840
S1268       S  0.89182304  0.32878534  0.24176408    -0.32850
H1269       H  0.88180738  0.32682896  0.27592684     0.28520
H1270       H  0.98418705  0.47236472  0.20594020     0.28520
H1271       H  0.96027022  0.41776302  0.28958673     0.19110
H1272       H  0.90705122  0.37946994  0.19040835     0.19110
C1273       C  0.92808234  0.35451451  0.39398941    -0.06720
C1274       C  0.90282493  0.37671250  0.39903457    -0.17850
C1275       C  0.90250266  0.39659211  0.42598283     0.10480
C1276       C  0.92661329  0.39277789  0.44984593    -0.06640
C1277       C  0.94930290  0.36809489  0.44704698    -0.17880
C1278       C  0.95077247  0.34926848  0.41941747     0.10510
S1279       S  0.87292683  0.42828947  0.42644961    -0.32840
S1280       S  0.98451884  0.32206464  0.41605982    -0.32850
H1281       H  0.99326850  0.32134686  0.44950693     0.28520
H1282       H  0.89380781  0.45221610  0.43963043     0.28520
H1283       H  0.88462396  0.38048097  0.38043391     0.19110
H1284       H  0.96763784  0.36522746  0.46565881     0.19110
C1285       C  0.99819562  0.07220401  0.18065150    -0.06720
C1286       C  0.97036387  0.07770676  0.20187065    -0.17850
C1287       C  0.97315763  0.09496677  0.23017759     0.10480
C1288       C  0.50441937  0.10852750  0.23772000    -0.06640
C1289       C  0.53226920  0.10468552  0.21626909    -0.17880
C1290       C  0.52960914  0.08672130  0.18789442     0.10510
S1291       S  0.93550704  0.09830624  0.25577286    -0.32840
S1292       S  0.56723402  0.08339267  0.16261282    -0.32850
H1293       H  0.56440649  0.04871875  0.16517944     0.28520
H1294       H  0.94971501  0.09488420  0.28685440     0.28520
H1295       H  0.94576297  0.06783570  0.19707304     0.19110
H1296       H  0.55636856  0.11507022  0.22212219     0.19110
C1297       C  0.50851933  0.09079324  0.35972273    -0.06720
C1298       C  0.99006517  0.06034576  0.35942802    -0.17850
C1299       C  0.98372764  0.03917394  0.38852500     0.10480
C1300       C  0.99622230  0.04847169  0.41865709    -0.06640
C1301       C  0.51610470  0.07789331  0.41869591    -0.17880
C1302       C  0.52291208  0.09879221  0.38957556     0.10510
S1303       S  0.95797850  0.00183353  0.38588103    -0.32840
S1304       S  0.55017695  0.13506094  0.39231904    -0.32850
H1305       H  0.56233985  0.13733806  0.35875266     0.28520
H1306       H  0.94264071  0.50054879  0.41818353     0.28520
H1307       H  0.97876544  0.05383753  0.33681228     0.19110
H1308       H  0.52607085  0.08486424  0.44182900     0.19110
C1309       C  0.96206838  0.26636700  0.31857894    -0.06720
C1310       C  0.94333162  0.24536422  0.29969137    -0.17850
C1311       C  0.95277982  0.21330945  0.29474851     0.10480
C1312       C  0.98209851  0.20186251  0.30843896    -0.06640
C1313       C  0.50098482  0.22304036  0.32702214    -0.17880
C1314       C  0.99169138  0.25516375  0.33172890     0.10510
S1315       S  0.92539487  0.18776967  0.27230491    -0.32840
S1316       S  0.01981634  0.28095974  0.35312563    -0.32850
H1317       H  0.01233672  0.31114155  0.33642414     0.28520
H1318       H  0.92902035  0.15887765  0.29313217     0.28520
H1319       H  0.92066989  0.25376627  0.28936222     0.19110
H1320       H  0.52371261  0.21472280  0.33727829     0.19110
C1321       C  0.60719617  0.00664793  0.49572349    -0.06720
C1322       C  0.62507127  0.03725455  0.99675018    -0.17850
C1323       C  0.65339901  0.04595244  0.47527790     0.10480
C1324       C  0.66414593  0.02357306  0.45223864    -0.06640
C1325       C  0.64709287  0.99266317  0.45236973    -0.17880
C1326       C  0.61941020  0.48383241  0.47385538     0.10510
S1327       S  0.67373722  0.08624815  0.97765143    -0.32840
S1328       S  0.60168017  0.44244440  0.47236100    -0.32850
H1329       H  0.59403286  0.43750758  0.50700913     0.28520
H1330       H  0.68539867  0.09061396  0.44395519     0.28520
H1331       H  0.61609739  0.05512708  0.01320685     0.19110
H1332       H  0.65596943  0.47468559  0.43594791     0.19110
C1333       C  0.78585973  0.02666447  0.43871627    -0.06720
C1334       C  0.80330358  0.05435265  0.44937499    -0.17850
C1335       C  0.83156324  0.05082130  0.46800161     0.10480
C1336       C  0.84300826  0.01882134  0.47565719    -0.06640
C1337       C  0.82555978  0.49142276  0.46414356    -0.17880
C1338       C  0.79718444  0.99487441  0.44628411     0.10510
S1339       S  0.85021230  0.08777100  0.48288866    -0.32840
S1340       S  0.77600748  0.45743542  0.43488211    -0.32850
H1341       H  0.74353635  0.46760191  0.44030776     0.28520
H1342       H  0.85194912  0.07375686  0.01584460     0.28520
H1343       H  0.79419995  0.07873639  0.44406710     0.19110
H1344       H  0.83346233  0.46667343  0.46991432     0.19110
C1345       C  0.58037774  0.44758323  0.15395095    -0.06720
C1346       C  0.58915924  0.47247703  0.17460060    -0.17850
C1347       C  0.61780861  0.47149844  0.19238487     0.10480
C1348       C  0.63745882  0.44372602  0.19147523    -0.06640
C1349       C  0.62740582  0.41754621  0.17263410    -0.17880
C1350       C  0.59942320  0.41941663  0.15340465     0.10510
S1351       S  0.62931771  0.00814378  0.21270791    -0.32840
S1352       S  0.59087865  0.38640909  0.12705530    -0.32850
H1353       H  0.58230656  0.40709029  0.09949240     0.28520
H1354       H  0.66317801  0.50895359  0.20211071     0.28520
H1355       H  0.57439835  0.49389112  0.17548346     0.19110
H1356       H  0.64247887  0.39630378  0.17152049     0.19110
C1357       C  0.81666978  0.46373207  0.12902883    -0.06720
C1358       C  0.79914292  0.43272581  0.13164786    -0.17850
C1359       C  0.77098886  0.42619350  0.15373601     0.10480
C1360       C  0.75972007  0.45149693  0.17301190    -0.06640
C1361       C  0.77572507  0.48306571  0.16827879    -0.17880
C1362       C  0.80344892  0.48957623  0.14620250     0.10510
S1363       S  0.75172549  0.38487042  0.15730795    -0.32840
S1364       S  0.82001762  0.03179085  0.14028830    -0.32850
H1365       H  0.83133895  0.03021153  0.10678315     0.28520
H1366       H  0.74032154  0.38480823  0.19094322     0.28520
H1367       H  0.80836533  0.41302406  0.11776139     0.19110
H1368       H  0.76619984  0.50305276  0.18165635     0.19110
C1369       C  0.71818262  0.00481615  0.34259130    -0.06720
C1370       C  0.73386911  0.47539609  0.33730099    -0.17850
C1371       C  0.72930906  0.45884076  0.30847906     0.10480
C1372       C  0.70876603  0.47196668  0.28393048    -0.06640
C1373       C  0.69320154  0.50142935  0.28913072    -0.17880
C1374       C  0.69793084  0.01811068  0.31782849     0.10510
S1375       S  0.74949754  0.42055725  0.30512255    -0.32840
S1376       S  0.67846947  0.05685708  0.32063004    -0.32850
H1377       H  0.70281630  0.07137529  0.33952681     0.28520
H1378       H  0.72537620  0.40572780  0.28619492     0.28520
H1379       H  0.74894689  0.46456144  0.35634404     0.19110
H1380       H  0.67809571  0.51218703  0.27008829     0.19110
C1381       C  0.84097503  0.16187272  0.09780529    -0.06720
C1382       C  0.86260027  0.16098311  0.06966957    -0.17850
C1383       C  0.88391307  0.13536343  0.06634830     0.10480
C1384       C  0.88254001  0.10840127  0.09142542    -0.06640
C1385       C  0.86141080  0.10996211  0.12023799    -0.17880
C1386       C  0.84051836  0.13625254  0.12363695     0.10510
S1387       S  0.91414192  0.13975329  0.03097639    -0.32840
S1388       S  0.81483951  0.13595774  0.16177453    -0.32850
H1389       H  0.79186664  0.15822709  0.14999520     0.28520
H1390       H  0.90293092  0.16867164  0.01472722     0.28520
H1391       H  0.86356747  0.18148587  0.05065190     0.19110
H1392       H  0.86102874  0.09056909  0.14029420     0.19110
C1393       C  0.89425652  0.34121078  0.09683356    -0.06720
C1394       C  0.90331811  0.31609042  0.07681616    -0.17850
C1395       C  0.88341534  0.28685245  0.07675738     0.10480
C1396       C  0.85391740  0.28228859  0.09766807    -0.06640
C1397       C  0.84557511  0.30687765  0.11866916    -0.17880
C1398       C  0.86538004  0.33624671  0.11853965     0.10510
S1399       S  0.89587203  0.25754510  0.04766870    -0.32840
S1400       S  0.85179571  0.36628363  0.14634315    -0.32850
H1401       H  0.87849376  0.38992046  0.14021029     0.28520
H1402       H  0.86347857  0.24790540  0.03955567     0.28520
H1403       H  0.92479268  0.32019230  0.05936430     0.19110
H1404       H  0.82317970  0.30333028  0.13496539     0.19110
C1405       C  0.57192786  0.18360945  0.02098707    -0.06720
C1406       C  0.54392423  0.18139057  0.04360490    -0.17850
C1407       C  0.52348559  0.15237492  0.04909842     0.10480
C1408       C  0.53087459  0.12499211  0.03110759    -0.06640
C1409       C  0.55817126  0.12743878  0.00774316    -0.17880
C1410       C  0.57853532  0.15653249  0.50219948     0.10510
S1411       S  0.98958730  0.15183410  0.08046947    -0.32840
S1412       S  0.61233197  0.15752246  0.47087879    -0.32850
H1413       H  0.61284000  0.19174801  0.46205181     0.28520
H1414       H  0.98337643  0.11748908  0.08631751     0.28520
H1415       H  0.53873672  0.20203328  0.05821542     0.19110
H1416       H  0.56394953  0.10629185  0.99407687     0.19110
C1417       C  0.54298948  0.35895778  0.03279755    -0.06720
C1418       C  0.56671157  0.35986635  0.00571336    -0.17850
C1419       C  0.58610128  0.33288439  0.50029196     0.10480
C1420       C  0.58170663  0.30413422  0.02245270    -0.06640
C1421       C  0.55764812  0.30286949  0.04898845    -0.17880
C1422       C  0.53780689  0.32926469  0.05392618     0.10510
S1423       S  0.61551836  0.33666027  0.46465564    -0.32840
S1424       S  0.50478536  0.32188974  0.08610266    -0.32850
H1425       H  0.98113107  0.33710327  0.06655592     0.28520
H1426       H  0.61564379  0.30277274  0.45985915     0.28520
H1427       H  0.57001831  0.38157234  0.48841067     0.19110
H1428       H  0.55359472  0.28048276  0.06559803     0.19110
C1429       C  0.68112900  0.23870113  0.04421577    -0.06720
C1430       C  0.70338643  0.21872576  0.02820668    -0.17850
C1431       C  0.73550157  0.21472281  0.03911675     0.10480
C1432       C  0.74578081  0.23049610  0.06734365    -0.06580
C1433       C  0.72365301  0.25070418  0.08311145    -0.17880
C1434       C  0.69156637  0.25465405  0.07228564     0.10510
S1435       S  0.76237343  0.19035595  0.01492199    -0.32840
S1436       S  0.66479044  0.27877362  0.09685586    -0.32850
H1437       H  0.63585331  0.25845124  0.09426453     0.28520
H1438       H  0.79181157  0.20924954  0.01938363     0.28520
H1439       H  0.69585204  0.20654078  0.00656564     0.19110
H1440       H  0.73110035  0.26276231  0.10485958     0.19110
C1441       C  0.59966100  0.27381736  0.01846067     0.02540
C1442       C  0.63316808  0.27223070  0.52598497    -0.13610
C1443       C  0.64712078  0.24131420  0.53172827     0.00040
C1444       C  0.62749492  0.21225170  0.52799308    -0.12140
C1445       C  0.59430455  0.21386069  0.01933063     0.02530
C1446       C  0.58084205  0.24469567  0.01417627    -0.11560
H1447       H  0.64757222  0.29481749  0.52956578     0.08120
H1448       H  0.63742757  0.18831367  0.53373218     0.05650
H1449       H  0.55475195  0.24595010  0.00916331     0.05500
C1450       C  0.82355876  0.19267629  0.60019955     0.02540
C1451       C  0.79150428  0.19541546  0.58851127    -0.13610
C1452       C  0.77910677  0.22680897  0.58110869     0.00040
C1453       C  0.79914546  0.25525677  0.58598243    -0.12140
C1454       C  0.83119351  0.25255066  0.59750773     0.02530
C1455       C  0.84277364  0.22127950  0.60553282    -0.11560
H1456       H  0.77695941  0.17324790  0.58380706     0.08120
H1457       H  0.79045095  0.27955373  0.57922247     0.05650
H1458       H  0.86801741  0.21920320  0.61318765     0.05500
C1459       C  0.67025489  0.44341514  0.70640754     0.02540
C1460       C  0.69878967  0.44093922  0.68545841    -0.13610
C1461       C  0.73046094  0.44716536  0.69697691     0.00040
C1462       C  0.73357480  0.45553564  0.72992488    -0.12140
C1463       C  0.70534093  0.45757781  0.75139270     0.02530
C1464       C  0.67371884  0.45061389  0.73972516    -0.11560
H1465       H  0.69631135  0.43690629  0.65935859     0.08120
H1466       H  0.75794794  0.46240809  0.73820456     0.05650
H1467       H  0.65175562  0.45303625  0.75586389     0.05500
C1468       C  0.75444306  0.03070744  0.92223333     0.02540
C1469       C  0.75218729  0.02346864  0.88885735    -0.13610
C1470       C  0.72100906  0.01891279  0.87541448     0.00040
C1471       C  0.69218723  0.02249006  0.89562825    -0.12140
C1472       C  0.69415604  0.02956023  0.92917674     0.02530
C1473       C  0.72546151  0.03432046  0.94208986    -0.11560
H1474       H  0.77458330  0.01903474  0.87417011     0.08120
H1475       H  0.66804161  0.01693833  0.88612304     0.05650
H1476       H  0.72724293  0.03723827  0.96850603     0.05500
C1477       C  0.50825534  0.12413265  0.76927811     0.02540
C1478       C  0.49864670  0.15652230  0.77246832    -0.13610
C1479       C  0.49368740  0.16815556  0.80428172     0.00040
C1480       C  0.49857362  0.14697383  0.83272282    -0.12140
C1481       C  0.50892731  0.11474343  0.82974972     0.02530
C1482       C  0.51459196  0.10391508  0.79780302    -0.11560
H1483       H  0.49355772  0.17200697  0.75035593     0.08120
H1484       H  0.49268937  0.15512837  0.85724129     0.05650
H1485       H  0.52108071  0.07864564  0.79517432     0.05500
C1486       C  0.93300507  0.34187854  0.86016284     0.02540
C1487       C  0.94161628  0.30923273  0.85560511    -0.13610
C1488       C  0.95027019  0.29977797  0.82350724     0.00040
C1489       C  0.94769575  0.32231243  0.79567455    -0.12140
C1490       C  0.93653312  0.35404231  0.79943422     0.02530
C1491       C  0.93025672  0.36386256  0.83166193    -0.11560
H1492       H  0.94201040  0.29119608  0.87683428     0.08120
H1493       H  0.95455718  0.31511187  0.77097635     0.05650
H1494       H  0.92344815  0.38897886  0.83445439     0.05500
O1495       O  0.52183248  0.41098315  0.51450000    -0.87080
O1496       O  0.92972510  0.46535403  0.66973616    -0.87250
O1497       O  0.53046657  0.43094293  0.62898214    -0.88920
O1498       O  0.94017514  0.37964784  0.60085197    -0.87670
O1499       O  0.89532591  0.39482960  0.57137367    -0.87260
O1500       O  0.55394539  0.48357364  0.61699142    -0.88630
O1501       O  0.95815924  0.42016431  0.65633072    -0.87110
O1502       O  0.51348209  0.39141163  0.56936470    -0.86700
Zr1503     Zr  0.97936680  0.42823843  0.59899519     2.84310
O1504       O  0.92667462  0.44961227  0.60069032    -1.08670
O1505       O  0.51600989  0.46179158  0.56216673    -1.09400
C1506       C  0.52491072  0.38909251  0.53916341     1.06030
C1507       C  0.94118963  0.43653590  0.67668437     1.05970
C1508       C  0.55321001  0.45407361  0.63162893     1.08950
C1509       C  0.91118097  0.37404555  0.58943392     1.06730
H1510       H  0.99107155  0.48078967  0.63975002     0.32290
O1511       O  0.98296893  0.48152336  0.61756018    -1.29630
H1512       H  0.95723313  0.40740749  0.53878653     0.31960
O1513       O  0.95872106  0.42958755  0.54585490    -1.31310
O1514       O  0.90413362  0.05668654  0.61217819    -0.87080
O1515       O  0.99666881  0.50146563  0.95797376    -0.88570
O1516       O  0.51550271  0.04722151  0.62998842    -0.87150
O1517       O  0.85646389  0.45355132  0.58525214    -0.87200
O1518       O  0.90884537  0.42036883  0.49743322    -0.86910
O1519       O  0.56856606  0.01365565  0.54186860    -0.86720
O1520       O  0.98512354  0.08657940  0.52708793    -0.87090
O1521       O  0.89526482  0.03448331  0.49779830    -0.86550
O1522       O  0.52958286  0.07182943  0.55742523    -0.87620
O1523       O  0.87076294  0.48279465  0.51187897    -0.86780
O1524       O  0.96248904  0.03730458  0.65267375    -0.87170
O1525       O  0.55239080  0.48330644  0.49920815    -0.86900
O1526       O  0.96240430  0.42914965  0.97471815    -0.86550
O1527       O  0.87209982  0.48473205  0.62756492    -0.86950
O1528       O  0.91317610  0.07508526  0.55721531    -0.87250
O1529       O  0.96869367  0.04700503  0.97107105    -0.88590
Zr1530     Zr  0.93019752  0.50301405  0.61851622     2.83100
Zr1531     Zr  0.99480471  0.46363993  0.50890492     2.83500
Zr1532     Zr  0.51928582  0.01523794  0.58047745     2.84090
Zr1533     Zr  0.90601416  0.45118682  0.54747662     2.83360
Zr1534     Zr  0.94628363  0.03786495  0.52808111     2.84220
O1535       O  0.94190740  0.48471621  0.50957974    -1.09160
O1536       O  0.96652257  0.03673844  0.58154383    -1.08660
C1537       C  0.90137283  0.07818310  0.58697901     1.06000
C1538       C  0.98631804  0.03073884  0.95114877     1.08620
C1539       C  0.99210679  0.05096155  0.65244990     1.06170
C1540       C  0.85051555  0.46759351  0.61257911     1.06530
C1541       C  0.93251491  0.41600946  0.97550160     1.06110
C1542       C  0.57408321  0.50061917  0.51383682     1.05670
C1543       C  0.51382332  0.09240400  0.53904609     1.06090
C1544       C  0.87160230  0.01194150  0.49649872     1.05610
H1545       H  0.51369781  0.03073991  0.51209528     0.32280
O1546       O  0.99875435  0.01665650  0.52723126    -1.30260
H1547       H  0.88782337  0.01363378  0.56556271     0.32310
O1548       O  0.90954937  0.50470773  0.56514116    -1.31640
C1549       C  0.93270335  0.37737524  0.76965694    -0.06720
C1550       C  0.94772150  0.40963194  0.76826221    -0.17850
C1551       C  0.94885709  0.43082182  0.73886832     0.10480
C1552       C  0.93459147  0.41959549  0.71023902    -0.06640
C1553       C  0.91798723  0.38823554  0.71228585    -0.17880
C1554       C  0.91606672  0.36746128  0.74170443     0.10510
S1555       S  0.97060774  0.47081246  0.73895725    -0.32840
S1556       S  0.89182304  0.32878534  0.74176407    -0.32850
H1557       H  0.88180737  0.32682895  0.77592684     0.28520
H1558       H  0.98418705  0.47236472  0.70594020     0.28520
H1559       H  0.96027022  0.41776301  0.78958673     0.19110
H1560       H  0.90705122  0.37946994  0.69040835     0.19110
C1561       C  0.92808234  0.35451450  0.89398941    -0.06720
C1562       C  0.90282493  0.37671249  0.89903458    -0.17850
C1563       C  0.90250266  0.39659210  0.92598283     0.10480
C1564       C  0.92661329  0.39277789  0.94984593    -0.06640
C1565       C  0.94930290  0.36809489  0.94704697    -0.17880
C1566       C  0.95077247  0.34926848  0.91941747     0.10510
S1567       S  0.87292683  0.42828946  0.92644962    -0.32840
S1568       S  0.98451885  0.32206464  0.91605982    -0.32850
H1569       H  0.99326851  0.32134687  0.94950693     0.28520
H1570       H  0.89380781  0.45221609  0.93963043     0.28520
H1571       H  0.88462396  0.38048097  0.88043391     0.19110
H1572       H  0.96763785  0.36522746  0.96565880     0.19110
C1573       C  0.99819561  0.07220400  0.68065151    -0.06720
C1574       C  0.97036387  0.07770673  0.70187068    -0.17850
C1575       C  0.97315764  0.09496674  0.73017762     0.10480
C1576       C  0.50441937  0.10852749  0.73772001    -0.06640
C1577       C  0.53226919  0.10468553  0.71626908    -0.17880
C1578       C  0.52960913  0.08672131  0.68789441     0.10510
S1579       S  0.93550705  0.09830619  0.75577290    -0.32840
S1580       S  0.56723401  0.08339270  0.66261279    -0.32850
H1581       H  0.56440650  0.04871878  0.66517943     0.28520
H1582       H  0.94971503  0.09488417  0.78685443     0.28520
H1583       H  0.94576297  0.06783565  0.69707308     0.19110
H1584       H  0.55636855  0.11507024  0.72212217     0.19110
C1585       C  0.50851934  0.09079324  0.85972273    -0.06720
C1586       C  0.99006518  0.06034575  0.85942802    -0.17850
C1587       C  0.98372766  0.03917393  0.88852500     0.10480
C1588       C  0.99622231  0.04847169  0.91865710    -0.06640
C1589       C  0.51610470  0.07789331  0.91869592    -0.17880
C1590       C  0.52291208  0.09879221  0.88957557     0.10510
S1591       S  0.95797852  0.00183353  0.88588103    -0.32840
S1592       S  0.55017695  0.13506094  0.89231905    -0.32850
H1593       H  0.56233986  0.13733807  0.85875267     0.28520
H1594       H  0.94264070  0.50054880  0.91818354     0.28520
H1595       H  0.97876546  0.05383753  0.83681228     0.19110
H1596       H  0.52607085  0.08486424  0.94182901     0.19110
C1597       C  0.96206838  0.26636700  0.81857894    -0.06720
C1598       C  0.94333162  0.24536421  0.79969137    -0.17850
C1599       C  0.95277982  0.21330944  0.79474852     0.10480
C1600       C  0.98209852  0.20186251  0.80843897    -0.06640
C1601       C  0.50098482  0.22304036  0.82702214    -0.17880
C1602       C  0.99169138  0.25516374  0.83172889     0.10510
S1603       S  0.92539487  0.18776965  0.77230492    -0.32840
S1604       S  0.01981634  0.28095974  0.85312562    -0.32850
H1605       H  0.01233671  0.31114155  0.83642413     0.28520
H1606       H  0.92902036  0.15887763  0.79313218     0.28520
H1607       H  0.92066988  0.25376626  0.78936223     0.19110
H1608       H  0.52371261  0.21472280  0.83727828     0.19110
C1609       C  0.60719618  0.00664792  0.99572349    -0.06720
C1610       C  0.62507126  0.03725456  0.49675017    -0.17850
C1611       C  0.65339902  0.04595242  0.97527790     0.10480
C1612       C  0.66414593  0.02357305  0.95223864    -0.06640
C1613       C  0.64709287  0.99266317  0.95236972    -0.17880
C1614       C  0.61941022  0.48383239  0.97385541     0.10510
S1615       S  0.67373720  0.08624817  0.47765141    -0.32840
S1616       S  0.60168020  0.44244438  0.97236105    -0.32850
H1617       H  0.59403287  0.43750757  0.00700918     0.28520
H1618       H  0.68539868  0.09061395  0.94395520     0.28520
H1619       H  0.61609737  0.05512710  0.51320683     0.19110
H1620       H  0.65596945  0.47468556  0.93594794     0.19110
C1621       C  0.78585974  0.02666446  0.93871626    -0.06720
C1622       C  0.80330363  0.05435264  0.94937492    -0.17850
C1623       C  0.83156329  0.05082129  0.96800153     0.10480
C1624       C  0.84300828  0.01882132  0.97565717    -0.06640
C1625       C  0.82555978  0.49142276  0.96414357    -0.17880
C1626       C  0.79718440  0.99487439  0.94628416     0.10510
S1627       S  0.85021242  0.08777101  0.98288847    -0.32840
S1628       S  0.77600747  0.45743542  0.93488212    -0.32850
H1629       H  0.74353635  0.46760191  0.94030777     0.28520
H1630       H  0.85194904  0.07375676  0.51584475     0.28520
H1631       H  0.79420003  0.07873639  0.94406698     0.19110
H1632       H  0.83346233  0.46667343  0.96991433     0.19110
C1633       C  0.58037774  0.44758324  0.65395095    -0.06720
C1634       C  0.58915925  0.47247704  0.67460059    -0.17850
C1635       C  0.61780861  0.47149845  0.69238486     0.10480
C1636       C  0.63745882  0.44372602  0.69147523    -0.06640
C1637       C  0.62740581  0.41754620  0.67263411    -0.17880
C1638       C  0.59942319  0.41941663  0.65340466     0.10510
S1639       S  0.62931772  0.00814380  0.71270789    -0.32840
S1640       S  0.59087863  0.38640909  0.62705531    -0.32850
H1641       H  0.58230655  0.40709028  0.59949241     0.28520
H1642       H  0.66317803  0.50895358  0.70211070     0.28520
H1643       H  0.57439836  0.49389113  0.67548345     0.19110
H1644       H  0.64247886  0.39630377  0.67152050     0.19110
C1645       C  0.81666978  0.46373206  0.62902883    -0.06720
C1646       C  0.79914292  0.43272581  0.63164787    -0.17850
C1647       C  0.77098886  0.42619349  0.65373602     0.10480
C1648       C  0.75972007  0.45149693  0.67301190    -0.06640
C1649       C  0.77572506  0.48306571  0.66827879    -0.17880
C1650       C  0.80344891  0.48957622  0.64620250     0.10510
S1651       S  0.75172549  0.38487041  0.65730796    -0.32840
S1652       S  0.82001761  0.03179085  0.64028828    -0.32850
H1653       H  0.83133895  0.03021153  0.60678314     0.28520
H1654       H  0.74032154  0.38480823  0.69094322     0.28520
H1655       H  0.80836533  0.41302406  0.61776139     0.19110
H1656       H  0.76619984  0.50305275  0.68165635     0.19110
C1657       C  0.71818262  0.00481616  0.84259129    -0.06720
C1658       C  0.73386912  0.47539608  0.83730099    -0.17850
C1659       C  0.72930907  0.45884075  0.80847905     0.10480
C1660       C  0.70876603  0.47196667  0.78393048    -0.06640
C1661       C  0.69320153  0.50142933  0.78913073    -0.17880
C1662       C  0.69793084  0.01811068  0.81782849     0.10510
S1663       S  0.74949756  0.42055725  0.80512255    -0.32840
S1664       S  0.67846947  0.05685708  0.82063004    -0.32850
H1665       H  0.70281629  0.07137529  0.83952682     0.28520
H1666       H  0.72537622  0.40572779  0.78619492     0.28520
H1667       H  0.74894691  0.46456144  0.85634403     0.19110
H1668       H  0.67809569  0.51218700  0.77008830     0.19110
C1669       C  0.84097503  0.16187273  0.59780530    -0.06720
C1670       C  0.86260027  0.16098311  0.56966958    -0.17850
C1671       C  0.88391307  0.13536344  0.56634831     0.10480
C1672       C  0.88254001  0.10840127  0.59142542    -0.06640
C1673       C  0.86141080  0.10996211  0.62023799    -0.17880
C1674       C  0.84051836  0.13625254  0.62363696     0.10510
S1675       S  0.91414192  0.13975330  0.53097640    -0.32840
S1676       S  0.81483950  0.13595774  0.66177454    -0.32850
H1677       H  0.79186664  0.15822709  0.64999520     0.28520
H1678       H  0.90293093  0.16867165  0.51472724     0.28520
H1679       H  0.86356747  0.18148588  0.55065191     0.19110
H1680       H  0.86102874  0.09056909  0.64029420     0.19110
C1681       C  0.89425652  0.34121078  0.59683357    -0.06720
C1682       C  0.90331811  0.31609042  0.57681617    -0.17850
C1683       C  0.88341533  0.28685245  0.57675739     0.10480
C1684       C  0.85391740  0.28228859  0.59766808    -0.06640
C1685       C  0.84557510  0.30687765  0.61866917    -0.17880
C1686       C  0.86538004  0.33624671  0.61853966     0.10510
S1687       S  0.89587203  0.25754510  0.54766871    -0.32840
S1688       S  0.85179571  0.36628363  0.64634316    -0.32850
H1689       H  0.87849376  0.38992046  0.64021029     0.28520
H1690       H  0.86347857  0.24790540  0.53955568     0.28520
H1691       H  0.92479268  0.32019230  0.55936431     0.19110
H1692       H  0.82317969  0.30333028  0.63496540     0.19110
C1693       C  0.57192785  0.18360945  0.52098707    -0.06720
C1694       C  0.54392424  0.18139057  0.54360491    -0.17850
C1695       C  0.52348559  0.15237493  0.54909842     0.10480
C1696       C  0.53087458  0.12499212  0.53110759    -0.06640
C1697       C  0.55817124  0.12743879  0.50774316    -0.17880
C1698       C  0.57853533  0.15653249  0.00219948     0.10510
S1699       S  0.98958731  0.15183411  0.58046949    -0.32840
S1700       S  0.61233198  0.15752245  0.97087880    -0.32850
H1701       H  0.61284001  0.19174801  0.96205181     0.28520
H1702       H  0.98337629  0.11748910  0.58631741     0.28520
H1703       H  0.53873673  0.20203328  0.55821543     0.19110
H1704       H  0.56394951  0.10629186  0.49407686     0.19110
C1705       C  0.54298949  0.35895778  0.53279755    -0.06720
C1706       C  0.56671158  0.35986636  0.50571338    -0.17850
C1707       C  0.58610127  0.33288438  0.00029195     0.10480
C1708       C  0.58170663  0.30413422  0.52245270    -0.06640
C1709       C  0.55764811  0.30286949  0.54898845    -0.17880
C1710       C  0.53780688  0.32926469  0.55392617     0.10510
S1711       S  0.61551834  0.33666026  0.96465562    -0.32840
S1712       S  0.50478534  0.32188974  0.58610265    -0.32850
H1713       H  0.98113106  0.33710328  0.56655590     0.28520
H1714       H  0.61564377  0.30277272  0.95985914     0.28520
H1715       H  0.57001829  0.38157233  0.98841065     0.19110
H1716       H  0.55359471  0.28048275  0.56559802     0.19110
C1717       C  0.68112900  0.23870113  0.54421577    -0.06720
C1718       C  0.70338643  0.21872576  0.52820669    -0.17850
C1719       C  0.73550157  0.21472282  0.53911675     0.10480
C1720       C  0.74578081  0.23049610  0.56734365    -0.06580
C1721       C  0.72365300  0.25070418  0.58311146    -0.17880
C1722       C  0.69156636  0.25465405  0.57228564     0.10510
S1723       S  0.76237344  0.19035596  0.51492199    -0.32840
S1724       S  0.66479043  0.27877361  0.59685587    -0.32850
H1725       H  0.63585330  0.25845123  0.59426453     0.28520
H1726       H  0.79181157  0.20924955  0.51938364     0.28520
H1727       H  0.69585204  0.20654079  0.50656564     0.19110
H1728       H  0.73110034  0.26276231  0.60485959     0.19110
C1729       C  0.59966099  0.77381736  0.51846068     0.02540
C1730       C  0.63316808  0.77223070  0.02598496    -0.13610
C1731       C  0.64712078  0.74131420  0.03172826     0.00040
C1732       C  0.62749491  0.71225170  0.02799307    -0.12140
C1733       C  0.59430455  0.71386069  0.51933063     0.02530
C1734       C  0.58084205  0.74469567  0.51417628    -0.11560
H1735       H  0.64757222  0.79481749  0.02956577     0.08120
H1736       H  0.63742757  0.68831368  0.03373217     0.05650
H1737       H  0.55475195  0.74595011  0.50916332     0.05500
C1738       C  0.82355876  0.69267628  0.10019953     0.02540
C1739       C  0.79150428  0.69541546  0.08851126    -0.13610
C1740       C  0.77910677  0.72680897  0.08110868     0.00040
C1741       C  0.79914546  0.75525677  0.08598242    -0.12140
C1742       C  0.83119351  0.75255066  0.09750771     0.02530
C1743       C  0.84277364  0.72127950  0.10553281    -0.11560
H1744       H  0.77695941  0.67324790  0.08380705     0.08120
H1745       H  0.79045095  0.77955373  0.07922246     0.05650
H1746       H  0.86801741  0.71920320  0.11318764     0.05500
C1747       C  0.67025489  0.94341512  0.20640755     0.02540
C1748       C  0.69878968  0.94093921  0.18545842    -0.13610
C1749       C  0.73046094  0.94716534  0.19697692     0.00040
C1750       C  0.73357480  0.95553562  0.22992489    -0.12140
C1751       C  0.70534093  0.95757779  0.25139271     0.02530
C1752       C  0.67371884  0.95061387  0.23972516    -0.11560
H1753       H  0.69631135  0.93690628  0.15935860     0.08120
H1754       H  0.75794794  0.96240807  0.23820457     0.05650
H1755       H  0.65175562  0.95303624  0.25586389     0.05500
C1756       C  0.75444306  0.53070745  0.42223333     0.02540
C1757       C  0.75218729  0.52346866  0.38885735    -0.13610
C1758       C  0.72100906  0.51891281  0.37541448     0.00040
C1759       C  0.69218723  0.52249008  0.39562825    -0.12140
C1760       C  0.69415603  0.52956024  0.42917673     0.02530
C1761       C  0.72546150  0.53432047  0.44208986    -0.11560
H1762       H  0.77458330  0.51903477  0.37417011     0.08120
H1763       H  0.66804161  0.51693835  0.38612303     0.05650
H1764       H  0.72724292  0.53723827  0.46850603     0.05500
C1765       C  0.50825535  0.62413264  0.26927811     0.02540
C1766       C  0.49864671  0.65652229  0.27246831    -0.13610
C1767       C  0.49368741  0.66815555  0.30428171     0.00040
C1768       C  0.49857363  0.64697382  0.33272282    -0.12140
C1769       C  0.50892731  0.61474342  0.32974972     0.02530
C1770       C  0.51459197  0.60391507  0.29780302    -0.11560
H1771       H  0.49355773  0.67200697  0.25035593     0.08120
H1772       H  0.49268937  0.65512837  0.35724128     0.05650
H1773       H  0.52108071  0.57864563  0.29517431     0.05500
C1774       C  0.93300506  0.84187854  0.36016284     0.02540
C1775       C  0.94161627  0.80923273  0.35560512    -0.13610
C1776       C  0.95027018  0.79977797  0.32350725     0.00040
C1777       C  0.94769574  0.82231244  0.29567455    -0.12140
C1778       C  0.93653312  0.85404231  0.29943422     0.02530
C1779       C  0.93025671  0.86386256  0.33166194    -0.11560
H1780       H  0.94201039  0.79119608  0.37683428     0.08120
H1781       H  0.95455717  0.81511187  0.27097635     0.05650
H1782       H  0.92344814  0.88897886  0.33445440     0.05500
O1783       O  0.52183248  0.91098315  0.01450000    -0.87080
O1784       O  0.92972510  0.96535403  0.16973616    -0.87250
O1785       O  0.53046658  0.93094292  0.12898214    -0.88920
O1786       O  0.94017514  0.87964783  0.10085197    -0.87670
O1787       O  0.89532591  0.89482960  0.07137367    -0.87260
O1788       O  0.55394540  0.98357364  0.11699143    -0.88630
O1789       O  0.95815924  0.92016430  0.15633073    -0.87110
O1790       O  0.51348209  0.89141163  0.06936469    -0.86700
Zr1791     Zr  0.97936680  0.92823843  0.09899520     2.84310
O1792       O  0.92667462  0.94961227  0.10069033    -1.08670
O1793       O  0.51600989  0.96179158  0.06216673    -1.09400
C1794       C  0.52491072  0.88909251  0.03916341     1.06030
C1795       C  0.94118963  0.93653590  0.17668437     1.05970
C1796       C  0.55321002  0.95407360  0.13162893     1.08950
C1797       C  0.91118097  0.87404554  0.08943393     1.06730
H1798       H  0.99107156  0.98078966  0.13975002     0.32290
O1799       O  0.98296893  0.98152335  0.11756018    -1.29630
H1800       H  0.95723312  0.90740749  0.03878653     0.31960
O1801       O  0.95872106  0.92958755  0.04585491    -1.31310
O1802       O  0.90413363  0.55668655  0.11217818    -0.87080
O1803       O  0.99666880  0.00146563  0.45797377    -0.88570
O1804       O  0.51550272  0.54722151  0.12998841    -0.87150
O1805       O  0.85646390  0.95355132  0.08525215    -0.87200
O1806       O  0.90884537  0.92036882  0.99743323    -0.86910
O1807       O  0.56856607  0.51365564  0.04186860    -0.86720
O1808       O  0.98512354  0.58657940  0.02708793    -0.87090
O1809       O  0.89526483  0.53448331  0.99779830    -0.86550
O1810       O  0.52958287  0.57182942  0.05742522    -0.87620
O1811       O  0.87076294  0.98279465  0.01187897    -0.86780
O1812       O  0.96248905  0.53730459  0.15267375    -0.87170
O1813       O  0.55239081  0.98330643  0.99920815    -0.86900
O1814       O  0.96240429  0.92914965  0.47471815    -0.86550
O1815       O  0.87209982  0.98473205  0.12756493    -0.86950
O1816       O  0.91317611  0.57508526  0.05721530    -0.87250
O1817       O  0.96869366  0.54700503  0.47107105    -0.88590
Zr1818     Zr  0.93019752  0.00301405  0.11851622     2.83100
Zr1819     Zr  0.99480471  0.96363993  0.00890492     2.83500
Zr1820     Zr  0.51928582  0.51523793  0.08047745     2.84090
Zr1821     Zr  0.90601416  0.95118682  0.04747663     2.83360
Zr1822     Zr  0.94628364  0.53786495  0.02808111     2.84220
O1823       O  0.94190740  0.98471621  0.00957975    -1.09160
O1824       O  0.96652258  0.53673844  0.08154382    -1.08660
C1825       C  0.90137283  0.57818310  0.08697901     1.06000
C1826       C  0.98631803  0.53073884  0.45114877     1.08620
C1827       C  0.99210679  0.55096156  0.15244989     1.06170
C1828       C  0.85051556  0.96759350  0.11257912     1.06530
C1829       C  0.93251490  0.91600946  0.47550160     1.06110
C1830       C  0.57408322  0.00061916  0.01383682     1.05670
C1831       C  0.51382333  0.59240400  0.03904608     1.06090
C1832       C  0.87160231  0.51194150  0.99649871     1.05610
H1833       H  0.51369782  0.53073990  0.01209528     0.32280
O1834       O  0.99875436  0.51665650  0.02723125    -1.30260
H1835       H  0.88782337  0.51363379  0.06556271     0.32310
O1836       O  0.90954937  0.00470772  0.06514117    -1.31640
C1837       C  0.93270335  0.87737524  0.26965694    -0.06720
C1838       C  0.94772149  0.90963195  0.26826221    -0.17850
C1839       C  0.94885709  0.93082182  0.23886833     0.10480
C1840       C  0.93459147  0.91959549  0.21023902    -0.06640
C1841       C  0.91798723  0.88823553  0.21228585    -0.17880
C1842       C  0.91606672  0.86746127  0.24170443     0.10510
S1843       S  0.97060773  0.97081246  0.23895726    -0.32840
S1844       S  0.89182304  0.82878533  0.24176408    -0.32850
H1845       H  0.88180737  0.82682895  0.27592684     0.28520
H1846       H  0.98418705  0.97236472  0.20594021     0.28520
H1847       H  0.96027021  0.91776302  0.28958674     0.19110
H1848       H  0.90705122  0.87946994  0.19040835     0.19110
C1849       C  0.92808233  0.85451451  0.39398942    -0.06720
C1850       C  0.90282492  0.87671249  0.39903458    -0.17850
C1851       C  0.90250265  0.89659211  0.42598284     0.10480
C1852       C  0.92661328  0.89277789  0.44984594    -0.06640
C1853       C  0.94930290  0.86809489  0.44704698    -0.17880
C1854       C  0.95077247  0.84926848  0.41941747     0.10510
S1855       S  0.87292682  0.92828946  0.42644963    -0.32840
S1856       S  0.98451884  0.82206464  0.41605982    -0.32850
H1857       H  0.99326851  0.82134688  0.44950693     0.28520
H1858       H  0.89380779  0.95221609  0.43963044     0.28520
H1859       H  0.88462395  0.88048097  0.38043392     0.19110
H1860       H  0.96763784  0.86522747  0.46565880     0.19110
C1861       C  0.99819561  0.57220401  0.18065150    -0.06720
C1862       C  0.97036387  0.57770675  0.20187065    -0.17850
C1863       C  0.97315763  0.59496676  0.23017759     0.10480
C1864       C  0.50441937  0.60852749  0.23772001    -0.06640
C1865       C  0.53226920  0.60468552  0.21626908    -0.17880
C1866       C  0.52960914  0.58672130  0.18789441     0.10510
S1867       S  0.93550704  0.59830623  0.25577286    -0.32840
S1868       S  0.56723402  0.58339268  0.16261280    -0.32850
H1869       H  0.56440649  0.54871876  0.16517943     0.28520
H1870       H  0.94971500  0.59488419  0.28685439     0.28520
H1871       H  0.94576296  0.56783569  0.19707304     0.19110
H1872       H  0.55636856  0.61507022  0.22212218     0.19110
C1873       C  0.50851935  0.59079323  0.35972273    -0.06720
C1874       C  0.99006517  0.56034575  0.35942801    -0.17850
C1875       C  0.98372765  0.53917393  0.38852500     0.10480
C1876       C  0.99622230  0.54847169  0.41865709    -0.06640
C1877       C  0.51610470  0.57789331  0.41869592    -0.17880
C1878       C  0.52291208  0.59879221  0.38957556     0.10510
S1879       S  0.95797852  0.50183352  0.38588102    -0.32840
S1880       S  0.55017695  0.63506094  0.39231905    -0.32850
H1881       H  0.56233986  0.63733807  0.35875267     0.28520
H1882       H  0.94264070  0.00054880  0.41818354     0.28520
H1883       H  0.97876545  0.55383752  0.33681228     0.19110
H1884       H  0.52607084  0.58486424  0.44182901     0.19110
C1885       C  0.96206836  0.76636700  0.31857895    -0.06720
C1886       C  0.94333161  0.74536422  0.29969138    -0.17850
C1887       C  0.95277981  0.71330945  0.29474851     0.10480
C1888       C  0.98209850  0.70186251  0.30843897    -0.06640
C1889       C  0.50098484  0.72304036  0.32702213    -0.17880
C1890       C  0.99169137  0.75516374  0.33172890     0.10510
S1891       S  0.92539485  0.68776966  0.27230491    -0.32840
S1892       S  0.01981633  0.78095973  0.35312563    -0.32850
H1893       H  0.01233671  0.81114154  0.33642414     0.28520
H1894       H  0.92902034  0.65887764  0.29313217     0.28520
H1895       H  0.92066987  0.75376627  0.28936223     0.19110
H1896       H  0.52371264  0.71472280  0.33727827     0.19110
C1897       C  0.60719617  0.50664793  0.49572348    -0.06720
C1898       C  0.62507127  0.53725455  0.99675017    -0.17850
C1899       C  0.65339901  0.54595243  0.47527790     0.10480
C1900       C  0.66414593  0.52357307  0.45223864    -0.06640
C1901       C  0.64709286  0.49266318  0.45236971    -0.17880
C1902       C  0.61941022  0.98383240  0.47385541     0.10510
S1903       S  0.67373721  0.58624816  0.97765142    -0.32840
S1904       S  0.60168020  0.94244438  0.47236106    -0.32850
H1905       H  0.59403287  0.93750758  0.50700919     0.28520
H1906       H  0.68539868  0.59061396  0.44395521     0.28520
H1907       H  0.61609738  0.55512709  0.01320684     0.19110
H1908       H  0.65596944  0.97468557  0.43594794     0.19110
C1909       C  0.78585973  0.52666448  0.43871627    -0.06720
C1910       C  0.80330356  0.55435265  0.44937502    -0.17850
C1911       C  0.83156322  0.55082130  0.46800165     0.10480
C1912       C  0.84300826  0.51882134  0.47565720    -0.06640
C1913       C  0.82555977  0.99142275  0.46414358    -0.17880
C1914       C  0.79718445  0.49487441  0.44628409     0.10510
S1915       S  0.85021226  0.58777099  0.48288873    -0.32840
S1916       S  0.77600744  0.95743541  0.43488216    -0.32850
H1917       H  0.74353632  0.96760191  0.44030780     0.28520
H1918       H  0.85194904  0.57375674  0.01584478     0.28520
H1919       H  0.79419992  0.57873639  0.44406715     0.19110
H1920       H  0.83346230  0.96667342  0.46991435     0.19110
C1921       C  0.58037775  0.94758323  0.15395095    -0.06720
C1922       C  0.58915926  0.97247703  0.17460060    -0.17850
C1923       C  0.61780862  0.97149843  0.19238487     0.10480
C1924       C  0.63745882  0.94372601  0.19147524    -0.06640
C1925       C  0.62740582  0.91754619  0.17263410    -0.17880
C1926       C  0.59942320  0.91941662  0.15340465     0.10510
S1927       S  0.62931769  0.50814380  0.21270792    -0.32840
S1928       S  0.59087864  0.88640908  0.12705530    -0.32850
H1929       H  0.58230656  0.90709028  0.09949240     0.28520
H1930       H  0.66317803  0.00895357  0.20211072     0.28520
H1931       H  0.57439836  0.99389111  0.17548345     0.19110
H1932       H  0.64247887  0.89630376  0.17152049     0.19110
C1933       C  0.81666978  0.96373206  0.12902884    -0.06720
C1934       C  0.79914292  0.93272580  0.13164787    -0.17850
C1935       C  0.77098886  0.92619348  0.15373602     0.10480
C1936       C  0.75972007  0.95149691  0.17301191    -0.06640
C1937       C  0.77572507  0.98306569  0.16827881    -0.17880
C1938       C  0.80344892  0.98957621  0.14620252     0.10510
S1939       S  0.75172550  0.88487040  0.15730795    -0.32840
S1940       S  0.82001761  0.53179086  0.14028826    -0.32850
H1941       H  0.83133895  0.53021154  0.10678312     0.28520
H1942       H  0.74032154  0.88480821  0.19094322     0.28520
H1943       H  0.80836534  0.91302405  0.11776139     0.19110
H1944       H  0.76619984  0.00305274  0.18165638     0.19110
C1945       C  0.71818263  0.50481618  0.34259129    -0.06720
C1946       C  0.73386911  0.97539607  0.33730100    -0.17850
C1947       C  0.72930906  0.95884073  0.30847907     0.10480
C1948       C  0.70876603  0.97196665  0.28393049    -0.06640
C1949       C  0.69320153  0.00142932  0.28913073    -0.17880
C1950       C  0.69793085  0.51811071  0.31782848     0.10510
S1951       S  0.74949755  0.92055723  0.30512257    -0.32840
S1952       S  0.67846949  0.55685712  0.32063003    -0.32850
H1953       H  0.70281632  0.57137532  0.33952681     0.28520
H1954       H  0.72537620  0.90572777  0.28619493     0.28520
H1955       H  0.74894689  0.96456142  0.35634404     0.19110
H1956       H  0.67809569  0.01218699  0.27008830     0.19110
C1957       C  0.84097503  0.66187272  0.09780529    -0.06720
C1958       C  0.86260026  0.66098310  0.06966956    -0.17850
C1959       C  0.88391306  0.63536343  0.06634830     0.10480
C1960       C  0.88254001  0.60840127  0.09142541    -0.06640
C1961       C  0.86141081  0.60996212  0.12023798    -0.17880
C1962       C  0.84051837  0.63625254  0.12363695     0.10510
S1963       S  0.91414191  0.63975329  0.03097638    -0.32840
S1964       S  0.81483952  0.63595775  0.16177453    -0.32850
H1965       H  0.79186664  0.65822707  0.14999519     0.28520
H1966       H  0.90293090  0.66867163  0.01472721     0.28520
H1967       H  0.86356746  0.68148587  0.05065189     0.19110
H1968       H  0.86102875  0.59056910  0.14029420     0.19110
C1969       C  0.89425652  0.84121077  0.09683357    -0.06720
C1970       C  0.90331811  0.81609041  0.07681616    -0.17850
C1971       C  0.88341533  0.78685245  0.07675738     0.10480
C1972       C  0.85391740  0.78228858  0.09766807    -0.06640
C1973       C  0.84557511  0.80687765  0.11866916    -0.17880
C1974       C  0.86538004  0.83624671  0.11853966     0.10510
S1975       S  0.89587202  0.75754510  0.04766870    -0.32840
S1976       S  0.85179571  0.86628362  0.14634316    -0.32850
H1977       H  0.87849376  0.88992046  0.14021029     0.28520
H1978       H  0.86347857  0.74790540  0.03955567     0.28520
H1979       H  0.92479268  0.82019230  0.05936431     0.19110
H1980       H  0.82317969  0.80333027  0.13496539     0.19110
C1981       C  0.57192785  0.68360945  0.02098705    -0.06720
C1982       C  0.54392422  0.68139058  0.04360488    -0.17850
C1983       C  0.52348559  0.65237492  0.04909840     0.10480
C1984       C  0.53087460  0.62499211  0.03110759    -0.06640
C1985       C  0.55817127  0.62743877  0.00774316    -0.17880
C1986       C  0.57853532  0.65653249  0.50219948     0.10510
S1987       S  0.98958730  0.65183410  0.08046945    -0.32840
S1988       S  0.61233197  0.65752246  0.47087879    -0.32850
H1989       H  0.61284000  0.69174801  0.46205181     0.28520
H1990       H  0.98337654  0.61748908  0.08631759     0.28520
H1991       H  0.53873670  0.70203329  0.05821539     0.19110
H1992       H  0.56394955  0.60629184  0.99407688     0.19110
C1993       C  0.54298949  0.85895778  0.03279755    -0.06720
C1994       C  0.56671157  0.85986635  0.00571336    -0.17850
C1995       C  0.58610127  0.83288438  0.50029195     0.10480
C1996       C  0.58170664  0.80413422  0.02245269    -0.06640
C1997       C  0.55764813  0.80286950  0.04898845    -0.17880
C1998       C  0.53780690  0.82926470  0.05392618     0.10510
S1999       S  0.61551833  0.83666026  0.46465562    -0.32840
S2000       S  0.50478538  0.82188974  0.08610268    -0.32850
H2001       H  0.98113106  0.83710326  0.06655592     0.28520
H2002       H  0.61564377  0.80277272  0.45985914     0.28520
H2003       H  0.57001828  0.88157233  0.48841065     0.19110
H2004       H  0.55359474  0.78048276  0.06559803     0.19110
C2005       C  0.68112900  0.73870113  0.04421576    -0.06720
C2006       C  0.70338643  0.71872576  0.02820668    -0.17850
C2007       C  0.73550157  0.71472282  0.03911675     0.10480
C2008       C  0.74578081  0.73049610  0.06734365    -0.06580
C2009       C  0.72365300  0.75070418  0.08311145    -0.17880
C2010       C  0.69156636  0.75465405  0.07228564     0.10510
S2011       S  0.76237343  0.69035596  0.01492198    -0.32840
S2012       S  0.66479043  0.77877361  0.09685586    -0.32850
H2013       H  0.63585330  0.75845123  0.09426452     0.28520
H2014       H  0.79181157  0.70924955  0.01938363     0.28520
H2015       H  0.69585204  0.70654079  0.00656563     0.19110
H2016       H  0.73110034  0.76276230  0.10485958     0.19110
C2017       C  0.59966100  0.77381736  0.01846067     0.02540
C2018       C  0.63316808  0.77223070  0.52598497    -0.13610
C2019       C  0.64712078  0.74131420  0.53172827     0.00040
C2020       C  0.62749491  0.71225170  0.52799307    -0.12140
C2021       C  0.59430455  0.71386070  0.01933062     0.02530
C2022       C  0.58084205  0.74469567  0.01417626    -0.11560
H2023       H  0.64757222  0.79481749  0.52956577     0.08120
H2024       H  0.63742757  0.68831368  0.53373218     0.05650
H2025       H  0.55475195  0.74595011  0.00916330     0.05500
C2026       C  0.82355876  0.69267628  0.60019954     0.02540
C2027       C  0.79150428  0.69541546  0.58851127    -0.13610
C2028       C  0.77910677  0.72680897  0.58110869     0.00040
C2029       C  0.79914546  0.75525677  0.58598243    -0.12140
C2030       C  0.83119351  0.75255066  0.59750772     0.02530
C2031       C  0.84277364  0.72127950  0.60553281    -0.11560
H2032       H  0.77695941  0.67324790  0.58380706     0.08120
H2033       H  0.79045095  0.77955373  0.57922247     0.05650
H2034       H  0.86801741  0.71920320  0.61318765     0.05500
C2035       C  0.67025489  0.94341513  0.70640754     0.02540
C2036       C  0.69878967  0.94093921  0.68545841    -0.13610
C2037       C  0.73046093  0.94716535  0.69697691     0.00040
C2038       C  0.73357479  0.95553563  0.72992488    -0.12140
C2039       C  0.70534093  0.95757780  0.75139270     0.02530
C2040       C  0.67371884  0.95061388  0.73972516    -0.11560
H2041       H  0.69631135  0.93690628  0.65935859     0.08120
H2042       H  0.75794794  0.96240808  0.73820456     0.05650
H2043       H  0.65175562  0.95303625  0.75586389     0.05500
C2044       C  0.75444306  0.53070745  0.92223333     0.02540
C2045       C  0.75218729  0.52346866  0.88885735    -0.13610
C2046       C  0.72100906  0.51891280  0.87541448     0.00040
C2047       C  0.69218723  0.52249006  0.89562826    -0.12140
C2048       C  0.69415604  0.52956023  0.92917674     0.02530
C2049       C  0.72546151  0.53432046  0.94208986    -0.11560
H2050       H  0.77458330  0.51903477  0.87417011     0.08120
H2051       H  0.66804161  0.51693833  0.88612304     0.05650
H2052       H  0.72724293  0.53723827  0.96850603     0.05500
C2053       C  0.50825534  0.62413264  0.76927811     0.02540
C2054       C  0.49864671  0.65652230  0.77246831    -0.13610
C2055       C  0.49368741  0.66815556  0.80428172     0.00040
C2056       C  0.49857363  0.64697382  0.83272282    -0.12140
C2057       C  0.50892731  0.61474342  0.82974972     0.02530
C2058       C  0.51459196  0.60391508  0.79780302    -0.11560
H2059       H  0.49355773  0.67200697  0.75035593     0.08120
H2060       H  0.49268938  0.65512837  0.85724129     0.05650
H2061       H  0.52108071  0.57864563  0.79517431     0.05500
C2062       C  0.93300505  0.84187855  0.86016284     0.02540
C2063       C  0.94161626  0.80923274  0.85560512    -0.13610
C2064       C  0.95027018  0.79977798  0.82350725     0.00040
C2065       C  0.94769575  0.82231244  0.79567456    -0.12140
C2066       C  0.93653312  0.85404231  0.79943422     0.02530
C2067       C  0.93025671  0.86386257  0.83166194    -0.11560
H2068       H  0.94201038  0.79119609  0.87683428     0.08120
H2069       H  0.95455718  0.81511188  0.77097636     0.05650
H2070       H  0.92344814  0.88897887  0.83445440     0.05500
O2071       O  0.52183248  0.91098315  0.51450000    -0.87080
O2072       O  0.92972510  0.96535403  0.66973616    -0.87250
O2073       O  0.53046657  0.93094293  0.62898214    -0.88920
O2074       O  0.94017514  0.87964784  0.60085197    -0.87670
O2075       O  0.89532591  0.89482960  0.57137367    -0.87260
O2076       O  0.55394539  0.98357364  0.61699142    -0.88630
O2077       O  0.95815923  0.92016431  0.65633072    -0.87110
O2078       O  0.51348209  0.89141163  0.56936470    -0.86700
Zr2079     Zr  0.97936680  0.92823843  0.59899519     2.84310
O2080       O  0.92667462  0.94961227  0.60069033    -1.08670
O2081       O  0.51600989  0.96179159  0.56216673    -1.09400
C2082       C  0.52491072  0.88909251  0.53916341     1.06030
C2083       C  0.94118963  0.93653590  0.67668437     1.05970
C2084       C  0.55321001  0.95407361  0.63162893     1.08950
C2085       C  0.91118097  0.87404555  0.58943393     1.06730
H2086       H  0.99107155  0.98078967  0.63975002     0.32290
O2087       O  0.98296893  0.98152336  0.61756018    -1.29630
H2088       H  0.95723312  0.90740749  0.53878653     0.31960
O2089       O  0.95872106  0.92958756  0.54585491    -1.31310
O2090       O  0.90413363  0.55668654  0.61217818    -0.87080
O2091       O  0.99666880  0.00146563  0.95797377    -0.88570
O2092       O  0.51550271  0.54722151  0.62998841    -0.87150
O2093       O  0.85646389  0.95355132  0.58525214    -0.87200
O2094       O  0.90884537  0.92036883  0.49743322    -0.86910
O2095       O  0.56856606  0.51365564  0.54186859    -0.86720
O2096       O  0.98512354  0.58657940  0.52708793    -0.87090
O2097       O  0.89526482  0.53448331  0.49779831    -0.86550
O2098       O  0.52958286  0.57182943  0.55742523    -0.87620
O2099       O  0.87076294  0.98279465  0.51187897    -0.86780
O2100       O  0.96248905  0.53730459  0.65267375    -0.87170
O2101       O  0.55239081  0.98330644  0.49920815    -0.86900
O2102       O  0.96240429  0.92914965  0.97471815    -0.86550
O2103       O  0.87209982  0.98473205  0.62756492    -0.86950
O2104       O  0.91317610  0.57508526  0.55721531    -0.87250
O2105       O  0.96869367  0.54700503  0.97107104    -0.88590
Zr2106     Zr  0.93019751  0.00301405  0.61851622     2.83100
Zr2107     Zr  0.99480471  0.96363993  0.50890492     2.83500
Zr2108     Zr  0.51928582  0.51523794  0.58047745     2.84090
Zr2109     Zr  0.90601416  0.95118682  0.54747662     2.83360
Zr2110     Zr  0.94628364  0.53786495  0.52808111     2.84220
O2111       O  0.94190740  0.98471621  0.50957974    -1.09160
O2112       O  0.96652258  0.53673844  0.58154383    -1.08660
C2113       C  0.90137283  0.57818310  0.58697901     1.06000
C2114       C  0.98631804  0.53073884  0.95114877     1.08620
C2115       C  0.99210679  0.55096156  0.65244990     1.06170
C2116       C  0.85051555  0.96759351  0.61257911     1.06530
C2117       C  0.93251490  0.91600946  0.97550161     1.06110
C2118       C  0.57408322  0.00061917  0.51383682     1.05670
C2119       C  0.51382332  0.59240400  0.53904609     1.06090
C2120       C  0.87160230  0.51194150  0.49649872     1.05610
H2121       H  0.51369781  0.53073990  0.51209528     0.32280
O2122       O  0.99875435  0.51665650  0.52723126    -1.30260
H2123       H  0.88782337  0.51363378  0.56556271     0.32310
O2124       O  0.90954937  0.00470773  0.56514116    -1.31640
C2125       C  0.93270335  0.87737524  0.76965695    -0.06720
C2126       C  0.94772149  0.90963195  0.76826221    -0.17850
C2127       C  0.94885709  0.93082182  0.73886833     0.10480
C2128       C  0.93459147  0.91959549  0.71023902    -0.06640
C2129       C  0.91798723  0.88823554  0.71228586    -0.17880
C2130       C  0.91606672  0.86746128  0.74170443     0.10510
S2131       S  0.97060773  0.97081246  0.73895726    -0.32840
S2132       S  0.89182304  0.82878534  0.74176408    -0.32850
H2133       H  0.88180737  0.82682896  0.77592684     0.28520
H2134       H  0.98418704  0.97236472  0.70594021     0.28520
H2135       H  0.96027021  0.91776302  0.78958674     0.19110
H2136       H  0.90705122  0.87946994  0.69040836     0.19110
C2137       C  0.92808232  0.85451451  0.89398942    -0.06720
C2138       C  0.90282492  0.87671250  0.89903458    -0.17850
C2139       C  0.90250265  0.89659211  0.92598284     0.10480
C2140       C  0.92661328  0.89277789  0.94984594    -0.06640
C2141       C  0.94930289  0.86809489  0.94704698    -0.17880
C2142       C  0.95077246  0.84926848  0.91941748     0.10510
S2143       S  0.87292681  0.92828946  0.92644964    -0.32840
S2144       S  0.98451883  0.82206464  0.91605983    -0.32850
H2145       H  0.99326848  0.82134686  0.94950694     0.28520
H2146       H  0.89380778  0.95221609  0.93963046     0.28520
H2147       H  0.88462394  0.88048097  0.88043392     0.19110
H2148       H  0.96763784  0.86522746  0.96565881     0.19110
C2149       C  0.99819561  0.57220402  0.68065150    -0.06720
C2150       C  0.97036387  0.57770675  0.70187065    -0.17850
C2151       C  0.97315763  0.59496676  0.73017759     0.10480
C2152       C  0.50441937  0.60852749  0.73772001    -0.06640
C2153       C  0.53226920  0.60468553  0.71626908    -0.17880
C2154       C  0.52960913  0.58672130  0.68789441     0.10510
S2155       S  0.93550704  0.59830623  0.75577286    -0.32840
S2156       S  0.56723401  0.58339269  0.66261280    -0.32850
H2157       H  0.56440649  0.54871877  0.66517942     0.28520
H2158       H  0.94971501  0.59488420  0.78685440     0.28520
H2159       H  0.94576296  0.56783569  0.69707305     0.19110
H2160       H  0.55636855  0.61507023  0.72212218     0.19110
C2161       C  0.50851935  0.59079324  0.85972273    -0.06720
C2162       C  0.99006517  0.56034576  0.85942801    -0.17850
C2163       C  0.98372765  0.53917394  0.88852500     0.10480
C2164       C  0.99622230  0.54847169  0.91865709    -0.06640
C2165       C  0.51610471  0.57789330  0.91869591    -0.17880
C2166       C  0.52291209  0.59879221  0.88957556     0.10510
S2167       S  0.95797850  0.50183353  0.88588102    -0.32840
S2168       S  0.55017696  0.63506094  0.89231904    -0.32850
H2169       H  0.56233987  0.63733806  0.85875266     0.28520
H2170       H  0.94264071  0.00054880  0.91818354     0.28520
H2171       H  0.97876544  0.55383754  0.83681228     0.19110
H2172       H  0.52607086  0.58486424  0.94182900     0.19110
C2173       C  0.96206837  0.76636700  0.81857895    -0.06720
C2174       C  0.94333161  0.74536422  0.79969138    -0.17850
C2175       C  0.95277982  0.71330945  0.79474851     0.10480
C2176       C  0.98209850  0.70186252  0.80843897    -0.06640
C2177       C  0.50098484  0.72304036  0.82702214    -0.17880
C2178       C  0.99169137  0.75516375  0.83172891     0.10510
S2179       S  0.92539486  0.68776967  0.77230491    -0.32840
S2180       S  0.01981633  0.78095974  0.85312564    -0.32850
H2181       H  0.01233670  0.81114154  0.83642415     0.28520
H2182       H  0.92902034  0.65887765  0.79313217     0.28520
H2183       H  0.92066988  0.75376627  0.78936223     0.19110
H2184       H  0.52371263  0.71472280  0.83727827     0.19110
C2185       C  0.60719618  0.50664792  0.99572349    -0.06720
C2186       C  0.62507127  0.53725456  0.49675017    -0.17850
C2187       C  0.65339902  0.54595243  0.97527790     0.10480
C2188       C  0.66414593  0.52357305  0.95223865    -0.06640
C2189       C  0.64709287  0.49266316  0.95236973    -0.17880
C2190       C  0.61941022  0.98383239  0.97385540     0.10510
S2191       S  0.67373722  0.58624816  0.47765143    -0.32840
S2192       S  0.60168019  0.94244438  0.97236103    -0.32850
H2193       H  0.59403286  0.93750757  0.00700917     0.28520
H2194       H  0.68539867  0.59061395  0.94395519     0.28520
H2195       H  0.61609738  0.55512709  0.51320685     0.19110
H2196       H  0.65596944  0.97468557  0.93594793     0.19110
C2197       C  0.78585974  0.52666448  0.93871626    -0.06720
C2198       C  0.80330358  0.55435265  0.94937500    -0.17850
C2199       C  0.83156324  0.55082130  0.96800162     0.10480
C2200       C  0.84300827  0.51882134  0.97565719    -0.06640
C2201       C  0.82555974  0.99142273  0.96414362    -0.17880
C2202       C  0.79718445  0.49487441  0.94628409     0.10510
S2203       S  0.85021228  0.58777099  0.98288869    -0.32840
S2204       S  0.77600736  0.95743539  0.93488228    -0.32850
H2205       H  0.74353626  0.96760193  0.94030789     0.28520
H2206       H  0.85194902  0.57375672  0.51584481     0.28520
H2207       H  0.79419994  0.57873639  0.94406712     0.19110
H2208       H  0.83346225  0.96667340  0.96991443     0.19110
C2209       C  0.58037774  0.94758324  0.65395095    -0.06720
C2210       C  0.58915926  0.97247704  0.67460058    -0.17850
C2211       C  0.61780862  0.97149845  0.69238486     0.10480
C2212       C  0.63745882  0.94372601  0.69147523    -0.06640
C2213       C  0.62740581  0.91754619  0.67263411    -0.17880
C2214       C  0.59942318  0.91941662  0.65340466     0.10510
S2215       S  0.62931771  0.50814380  0.71270790    -0.32840
S2216       S  0.59087862  0.88640908  0.62705532    -0.32850
H2217       H  0.58230654  0.90709027  0.59949241     0.28520
H2218       H  0.66317804  0.00895358  0.70211069     0.28520
H2219       H  0.57439838  0.99389114  0.67548343     0.19110
H2220       H  0.64247885  0.89630376  0.67152051     0.19110
C2221       C  0.81666977  0.96373206  0.62902883    -0.06720
C2222       C  0.79914291  0.93272580  0.63164786    -0.17850
C2223       C  0.77098886  0.92619349  0.65373601     0.10480
C2224       C  0.75972007  0.95149692  0.67301190    -0.06640
C2225       C  0.77572506  0.98306570  0.66827880    -0.17880
C2226       C  0.80344891  0.98957622  0.64620251     0.10510
S2227       S  0.75172549  0.88487041  0.65730795    -0.32840
S2228       S  0.82001761  0.53179086  0.64028826    -0.32850
H2229       H  0.83133895  0.53021153  0.60678312     0.28520
H2230       H  0.74032153  0.88480822  0.69094321     0.28520
H2231       H  0.80836533  0.91302406  0.61776138     0.19110
H2232       H  0.76619984  0.00305274  0.68165636     0.19110
C2233       C  0.71818262  0.50481617  0.84259129    -0.06720
C2234       C  0.73386912  0.97539607  0.83730099    -0.17850
C2235       C  0.72930907  0.95884074  0.80847905     0.10480
C2236       C  0.70876603  0.97196666  0.78393048    -0.06640
C2237       C  0.69320153  0.00142933  0.78913073    -0.17880
C2238       C  0.69793084  0.51811069  0.81782849     0.10510
S2239       S  0.74949756  0.92055725  0.80512255    -0.32840
S2240       S  0.67846947  0.55685709  0.82063004    -0.32850
H2241       H  0.70281629  0.57137530  0.83952682     0.28520
H2242       H  0.72537621  0.90572778  0.78619492     0.28520
H2243       H  0.74894690  0.96456143  0.85634403     0.19110
H2244       H  0.67809569  0.01218700  0.77008830     0.19110
C2245       C  0.84097503  0.66187272  0.59780530    -0.06720
C2246       C  0.86260027  0.66098311  0.56966957    -0.17850
C2247       C  0.88391307  0.63536344  0.56634831     0.10480
C2248       C  0.88254001  0.60840127  0.59142542    -0.06640
C2249       C  0.86141080  0.60996211  0.62023799    -0.17880
C2250       C  0.84051836  0.63625254  0.62363696     0.10510
S2251       S  0.91414192  0.63975329  0.53097639    -0.32840
S2252       S  0.81483951  0.63595774  0.66177453    -0.32850
H2253       H  0.79186664  0.65822708  0.64999520     0.28520
H2254       H  0.90293092  0.66867164  0.51472722     0.28520
H2255       H  0.86356747  0.68148587  0.55065190     0.19110
H2256       H  0.86102874  0.59056909  0.64029420     0.19110
C2257       C  0.89425652  0.84121078  0.59683357    -0.06720
C2258       C  0.90331810  0.81609042  0.57681617    -0.17850
C2259       C  0.88341533  0.78685245  0.57675739     0.10480
C2260       C  0.85391740  0.78228859  0.59766808    -0.06640
C2261       C  0.84557510  0.80687765  0.61866917    -0.17880
C2262       C  0.86538004  0.83624671  0.61853966     0.10510
S2263       S  0.89587203  0.75754510  0.54766871    -0.32840
S2264       S  0.85179571  0.86628363  0.64634316    -0.32850
H2265       H  0.87849376  0.88992046  0.64021029     0.28520
H2266       H  0.86347857  0.74790540  0.53955568     0.28520
H2267       H  0.92479268  0.82019230  0.55936431     0.19110
H2268       H  0.82317969  0.80333028  0.63496540     0.19110
C2269       C  0.57192785  0.68360945  0.52098707    -0.06720
C2270       C  0.54392423  0.68139057  0.54360490    -0.17850
C2271       C  0.52348559  0.65237493  0.54909842     0.10480
C2272       C  0.53087458  0.62499212  0.53110759    -0.06640
C2273       C  0.55817124  0.62743878  0.50774316    -0.17880
C2274       C  0.57853533  0.65653249  0.00219948     0.10510
S2275       S  0.98958731  0.65183411  0.58046949    -0.32840
S2276       S  0.61233200  0.65752245  0.97087880    -0.32850
H2277       H  0.61284001  0.69174800  0.96205181     0.28520
H2278       H  0.98337629  0.61748910  0.58631740     0.28520
H2279       H  0.53873672  0.70203328  0.55821543     0.19110
H2280       H  0.56394952  0.60629185  0.49407686     0.19110
C2281       C  0.54298948  0.85895779  0.53279755    -0.06720
C2282       C  0.56671157  0.85986635  0.50571336    -0.17850
C2283       C  0.58610127  0.83288438  0.00029194     0.10480
C2284       C  0.58170663  0.80413422  0.52245270    -0.06640
C2285       C  0.55764812  0.80286950  0.54898846    -0.17880
C2286       C  0.53780689  0.82926470  0.55392618     0.10510
S2287       S  0.61551832  0.83666026  0.96465560    -0.32840
S2288       S  0.50478537  0.82188975  0.58610267    -0.32850
H2289       H  0.98113106  0.83710327  0.56655591     0.28520
H2290       H  0.61564376  0.80277272  0.95985913     0.28520
H2291       H  0.57001828  0.88157233  0.98841064     0.19110
H2292       H  0.55359473  0.78048277  0.56559804     0.19110
C2293       C  0.68112900  0.73870113  0.54421577    -0.06720
C2294       C  0.70338643  0.71872576  0.52820668    -0.17850
C2295       C  0.73550157  0.71472282  0.53911675     0.10480
C2296       C  0.74578081  0.73049610  0.56734365    -0.06580
C2297       C  0.72365300  0.75070418  0.58311146    -0.17880
C2298       C  0.69156636  0.75465405  0.57228564     0.10510
S2299       S  0.76237343  0.69035596  0.51492199    -0.32840
S2300       S  0.66479043  0.77877361  0.59685587    -0.32850
H2301       H  0.63585330  0.75845123  0.59426453     0.28520
H2302       H  0.79181157  0.70924955  0.51938363     0.28520
H2303       H  0.69585204  0.70654079  0.50656564     0.19110
H2304       H  0.73110034  0.76276230  0.60485959     0.19110
loop_ 
_geom_bond_atom_site_label_1 
_geom_bond_atom_site_label_2 
_geom_bond_distance 
_geom_bond_site_symmetry_2 
_ccdc_geom_bond_type 
C1            C6   1.398       .  A
C1          C290   1.404       .  A
C1          C556   1.476       .  S
C2            C3   1.411       .  A
C2          C289   1.404       .  A
C2            H7   1.083       .  S
C3            C4   1.408       .  A
C3          C277   1.492       .  S
C4          C293   1.404       .  A
C4            H8   1.084       .  S
C5            C6   1.396       .  A
C5          C292   1.404       .  A
C5          C541   1.480       .  S
C6            H9   1.085       .  S
C10          C11   1.406       .  A
C10          C15   1.399       .  A
C10         C229   1.474       .  S
C11          C12   1.410       .  A
C11          H16   1.083       .  S
C12          C13   1.407       .  A
C12         C280   1.491       .  S
C13          C14   1.403       .  A
C13          H17   1.084       .  S
C14          C15   1.396       .  A
C14         C244   1.478       .  S
C15          H18   1.085       .  S
C19          C20   1.403       .  A
C19          C24   1.407       .  A
C19         C196   1.482       .  S
C20          C21   1.399       .  A
C20          H25   1.084       .  S
C21          C22   1.404       .  A
C21         C208   1.478       .  S
C22          C23   1.402       .  A
C22          H26   1.084       .  S
C23          C24   1.405       .  A
C23         C220   1.485       .  S
C24          H27   1.084       .  S
C28          C29   1.403       .  A
C28          C33   1.401       .  A
C28         C181   1.472       .  S
C29          C30   1.404       .  A
C29          H34   1.084       .  S
C30          C31   1.404       .  A
C30         C217   1.487       .  S
C31          C32   1.407       .  A
C31          H35   1.084       .  S
C32          C33   1.400       .  A
C32         C172   1.483       .  S
C33          H36   1.084       .  S
C37          C38   1.404   1_455  A
C37          C42   1.400       .  A
C37         C136   1.475       .  S
C38          C39   1.407       .  A
C38          H43   1.083       .  S
C39          C40   1.405       .  A
C39        C1312   1.489       .  S
C40          C41   1.407   1_655  A
C40          H44   1.083       .  S
C41          C42   1.402       .  A
C41         C145   1.487       .  S
C42          H45   1.084       .  S
C46          C47   1.412       .  A
C46          C51   1.409       .  A
C46         C121   1.499       .  S
C47          C48   1.408       .  A
C47          H52   1.082       .  S
C48          C49   1.401       .  A
C48         C157   1.486       .  S
C49          C50   1.404       .  A
C49          H53   1.084       .  S
C50          C51   1.400       .  A
C50         C109   1.488       .  S
C51          H54   1.083       .  S
O55          C66   1.295       .  A
O55       Zr1243   2.451   1_455  S
O56          C67   1.297       .  A
O56         Zr90   2.466       .  S
O57          C68   1.292       .  A
O57       Zr1215   2.444   1_455  S
O58          C69   1.294       .  A
O58         Zr63   2.456       .  S
O59          C69   1.288       .  A
O59         Zr93   2.420       .  S
O60          C68   1.291       .  A
O60        Zr668   2.424       .  S
O61          C67   1.287       .  A
O61         Zr63   2.409       .  S
O62          C66   1.289       .  A
O62       Zr1215   2.424   1_455  S
Zr63       O1209   2.444       .  S
Zr63       O1214   2.424       .  S
Zr63         O64   2.338       .  S
Zr63         O73   2.332       .  S
Zr63         O71   2.344       .  S
Zr63       O1217   2.340       .  S
O64         Zr90   2.337       .  S
O64         Zr93   2.335       .  S
O65       Zr1215   2.340   1_455  S
O65       Zr1243   2.346   1_455  S
O65        Zr668   2.346       .  S
C66         C265   1.490       .  S
C67         C112   1.471       .  S
C68         C193   1.474       .  S
C69         C241   1.467       .  S
H70          O71   0.965       .  S
O71         Zr90   2.342       .  S
O71       Zr1820   2.341       .  S
H72          O73   0.966       .  S
O73         Zr91   2.340       .  S
O73         Zr93   2.342       .  S
O74          C97   1.298       .  A
O74        Zr666   2.471       .  S
O75         C674   1.295       .  A
O75        Zr379   2.457       .  S
O76        C1251   1.295   1_455  A
O76         Zr92   2.465       .  S
O77         C100   1.295       .  A
O77         Zr93   2.457       .  S
O78         C389   1.294       .  A
O78         Zr93   2.454   1_556  S
O79         C678   1.297       .  A
O79         Zr92   2.464       .  S
O80        C1255   1.294       .  A
O80         Zr94   2.454       .  S
O81         C104   1.293       .  A
O81         Zr94   2.449   1_556  S
O82         C103   1.287       .  A
O82         Zr92   2.416       .  S
O83         C680   1.290   1_554  A
O83         Zr93   2.416       .  S
O84          C99   1.289       .  A
O84        Zr666   2.413       .  S
O85         C102   1.289   1_556  A
O85       Zr1243   2.417   1_456  S
O86         C101   1.290       .  A
O86        Zr379   2.421       .  S
O87         C100   1.290       .  A
O87         Zr90   2.420       .  S
O88          C97   1.283       .  A
O88         Zr94   2.402       .  S
O89          C98   1.287       .  A
O89        Zr382   2.414       .  S
Zr90        O650   2.471       .  S
Zr90        O660   2.413       .  S
Zr90        O108   2.341       .  S
Zr90        O672   2.339       .  S
Zr91       O1207   2.451       .  S
Zr91        O363   2.457   1_554  S
Zr91       O1237   2.417   1_554  S
Zr91        O374   2.421   1_554  S
Zr91         O95   2.340       .  S
Zr91       O1217   2.346       .  S
Zr91        O682   2.331       .  S
Zr92        O636   2.424   1_545  S
Zr92        O641   2.346   1_545  S
Zr92       O1799   2.341   1_445  S
Zr92       O1248   2.342   1_455  S
Zr92       O1258   2.334   1_455  S
Zr93         O95   2.346       .  S
Zr93        O108   2.339       .  S
Zr94        O377   2.414   1_554  S
Zr94         O96   2.338       .  S
Zr94        O106   2.326       .  S
Zr94        O671   2.339   1_545  S
Zr94        O684   2.339       .  S
O95        Zr670   2.339       .  S
O96        Zr666   2.339       .  S
O96       Zr1244   2.342       .  S
C97         C232   1.495       .  S
C98         C148   1.467       .  S
C98         O651   1.295       .  A
C99         C133   1.501       .  S
C99        O1228   1.295       .  A
C100        C205   1.480       .  S
C101        C124   1.472       .  S
C101        O366   1.294       .  A
C102       C1033   1.486   1_554  S
C102        O655   1.297       .  A
C103        C256   1.463       .  S
C103       O1232   1.294   1_455  A
C104        C472   1.487       .  S
C104        O659   1.290   1_546  A
H105       O1258   0.965   1_455  S
O106       Zr667   2.331   1_545  S
O106      Zr1244   2.334       .  S
O106       H1257   0.965       .  S
H107        O684   0.966       .  S
O108       Zr670   2.339       .  S
O108        H683   0.966       .  S
C109        C110   1.410       .  A
C109        C114   1.414       .  A
C110        C111   1.404       .  A
C110        H119   1.083       .  S
C111        C112   1.411       .  A
C111        S115   1.805       .  S
C112        C113   1.402       .  A
C113        C114   1.394       .  A
C113        H120   1.081       .  S
C114        S116   1.805       .  S
S115        H118   1.405       .  S
S116        H117   1.407       .  S
C121        C122   1.413       .  A
C121        C126   1.419       .  A
C122        C123   1.402       .  A
C122        H131   1.084       .  S
C123        C124   1.408       .  A
C123        S127   1.801       .  S
C124        C125   1.400       .  A
C125        C126   1.398       .  A
C125        H132   1.084       .  S
C126        S128   1.804       .  S
S127        H130   1.406       .  S
S128        H129   1.407       .  S
C133        C134   1.412       .  A
C133       C1290   1.423       .  A
C134        C135   1.390       .  A
C134        H143   1.083       .  S
C135       C1288   1.406       .  A
C135        S139   1.806       .  S
C136        C137   1.403       .  A
C136       C1287   1.406   1_455  A
C137        C138   1.408       .  A
C137        H144   1.084       .  S
C138       C1285   1.423   1_455  A
C138        S140   1.799       .  S
S139        H142   1.403       .  S
S140        H141   1.402       .  S
C145        C150   1.414       .  A
C145       C1298   1.410   1_455  A
C146        C147   1.400       .  A
C146       C1297   1.410       .  A
C146        H155   1.084       .  S
C147        C148   1.408       .  A
C147        S151   1.806       .  S
C148       C1301   1.403       .  A
C149        C150   1.397       .  A
C149       C1300   1.403   1_455  A
C149        H156   1.085       .  S
C150        S152   1.805       .  S
S151        H730   1.405       .  S
S152        H153   1.406       .  S
H154        S727   1.405       .  S
C157        C158   1.404       .  A
C157        C162   1.414       .  A
C158        C159   1.402       .  A
C158        H167   1.084       .  S
C159        C160   1.416       .  A
C159        S163   1.801       .  S
C160       C1313   1.404       .  A
C160       C1191   1.489       .  S
C161       C1312   1.404   1_455  A
C161       C1314   1.401   1_455  A
C161        H168   1.084       .  S
C162       C1313   1.401       .  A
C162        S164   1.801       .  S
S163        H166   1.406       .  S
S164        H165   1.406       .  S
C169        C458   1.408       .  A
C169        C750   1.416   1_545  A
C169        C966   1.486       .  S
C170        C457   1.408       .  A
C170        C459   1.408       .  A
C170        H179   1.084   1_556  S
C171        C172   1.416       .  A
C171        C458   1.408       .  A
C171        S463   1.803       .  S
C172        C173   1.399   1_545  A
C173        C750   1.389       .  A
C173        H756   1.085       .  S
C174        C745   1.416       .  A
C174        C749   1.389       .  A
C174        S176   1.798       .  S
S175        C459   1.803       .  S
S175        H466   1.406       .  S
S176        H177   1.408       .  S
H178        S463   1.406       .  S
H180        C749   1.085       .  S
C181        C182   1.403       .  A
C181        C186   1.408   1_545  A
C182        C183   1.404       .  A
C182        H191   1.084       .  S
C183        C184   1.419       .  A
C183        S187   1.802       .  S
C184        C761   1.407   1_545  A
C184        C392   1.487       .  S
C185        C760   1.407       .  A
C185        C762   1.391       .  A
C185        H192   1.082       .  S
C186        C761   1.391       .  A
C186        S764   1.807       .  S
S187        H478   1.408       .  S
S188        C762   1.807       .  S
S188        H189   1.405       .  S
H190        S475   1.408   1_554  S
C193        C194   1.401       .  A
C193        C198   1.412       .  A
C194        C195   1.391       .  A
C194        H203   1.081       .  S
C195        C196   1.414       .  A
C195        S775   1.805       .  S
C196        C197   1.408       .  A
C197        C198   1.404       .  A
C197        H204   1.084       .  S
C198        S200   1.804       .  S
S199        C771   1.805   1_545  S
S199        H778   1.407       .  S
S200        H201   1.407       .  S
H202        S775   1.407       .  S
C205        C206   1.405       .  A
C205        C210   1.414       .  A
C206        C207   1.405       .  A
C206        H215   1.082       .  S
C207        C208   1.415       .  A
C207        S211   1.804       .  S
C208        C209   1.399       .  A
C209        C210   1.391       .  A
C209        H216   1.085       .  S
C210        S788   1.800       .  S
S211        H214   1.406       .  S
S212        C786   1.800   1_545  S
S212        H213   1.407       .  S
C217        C222   1.414       .  A
C217        C794   1.407   1_545  A
C218        C219   1.401       .  A
C218        C793   1.407       .  A
C218        H227   1.084       .  S
C219        C220   1.413       .  A
C219        S223   1.804       .  S
C220        C221   1.405       .  A
C221        C798   1.400       .  A
C221        H228   1.083       .  S
C222        C797   1.400       .  A
C222        S224   1.804       .  S
S223        H226   1.406       .  S
S224        H225   1.406       .  S
C229        C230   1.396       .  A
C229        C234   1.410       .  A
C230        C231   1.394       .  A
C230        H239   1.083       .  S
C231        C232   1.426       .  A
C231        S235   1.816       .  S
C232        C233   1.409       .  A
C233        C234   1.405       .  A
C233        H240   1.081       .  S
C234        S236   1.804       .  S
S235        H238   1.406       .  S
S236        H237   1.403       .  S
C241        C242   1.400       .  A
C241        C246   1.414       .  A
C242        C243   1.398       .  A
C242        H251   1.083       .  S
C243        C244   1.416       .  A
C243        S247   1.805       .  S
C244        C245   1.401       .  A
C245        C246   1.399       .  A
C245        H252   1.084       .  S
C246        S248   1.806       .  S
S247        H250   1.406       .  S
S248        H249   1.402       .  S
C253        C254   1.407       .  A
C253        C546   1.411       .  A
C253        C293   1.480       .  S
C254        C255   1.398       .  A
C254        H263   1.084       .  S
C255        C256   1.410       .  A
C255       S1411   1.809   1_455  S
C256        C257   1.403       .  A
C257        C546   1.399       .  A
C257        H264   1.085   1_554  S
C258        C541   1.411       .  A
C258        C545   1.399       .  A
C258        S260   1.803       .  S
S259       C1407   1.809       .  S
S259        H262   1.403       .  S
S260        H261   1.406       .  S
C265        C266   1.408       .  A
C265        C270   1.419       .  A
C266        C555   1.404       .  A
C266        H563   1.077   1_554  S
C267        C554   1.404       .  A
C267        C556   1.410       .  A
C267        S271   1.804       .  S
C268        C269   1.400       .  A
C268        C555   1.410       .  A
C268        C289   1.476       .  S
C269        C270   1.392       .  A
C269        H276   1.085       .  S
C270        S272   1.804       .  S
S271        H274   1.405       .  S
S272       H1425   1.405   1_455  S
H273       S1424   1.405       .  S
H275        C554   1.077       .  S
C277        C278   1.406       .  A
C277        C282   1.417       .  A
C278        C279   1.403       .  A
C278        H287   1.084       .  S
C279        C280   1.417       .  A
C279        S283   1.804       .  S
C280        C281   1.404       .  A
C281        C282   1.400       .  A
C281        H288   1.084       .  S
C282        S284   1.804       .  S
S283        H286   1.407       .  S
S284        H285   1.407       .  S
C289        C294   1.398       .  A
C290        C291   1.411       .  A
C290        H295   1.083       .  S
C291        C292   1.408       .  A
C291        C565   1.492       .  S
C292        H296   1.084       .  S
C293        C294   1.396       .  A
C294        H297   1.085       .  S
C298        C299   1.406       .  A
C298        C303   1.399       .  A
C298        C517   1.474       .  S
C299        C300   1.410       .  A
C299        H304   1.083       .  S
C300        C301   1.407       .  A
C300        C568   1.491       .  S
C301        C302   1.403       .  A
C301        H305   1.084       .  S
C302        C303   1.396       .  A
C302        C532   1.478       .  S
C303        H306   1.085       .  S
C307        C308   1.403       .  A
C307        C312   1.407       .  A
C307        C484   1.482       .  S
C308        C309   1.399       .  A
C308        H313   1.084       .  S
C309        C310   1.404       .  A
C309        C496   1.478       .  S
C310        C311   1.402       .  A
C310        H314   1.084       .  S
C311        C312   1.405       .  A
C311        C508   1.485       .  S
C312        H315   1.084       .  S
C316        C317   1.403       .  A
C316        C321   1.401       .  A
C316        C469   1.472       .  S
C317        C318   1.404       .  A
C317        H322   1.084       .  S
C318        C319   1.404       .  A
C318        C505   1.487       .  S
C319        C320   1.407       .  A
C319        H323   1.084       .  S
C320        C321   1.400       .  A
C320        C460   1.483       .  S
C321        H324   1.084       .  S
C325        C326   1.404   1_455  A
C325        C330   1.400       .  A
C325        C424   1.475       .  S
C326        C327   1.407       .  A
C326        H331   1.083       .  S
C327        C328   1.405       .  A
C327       C1600   1.489       .  S
C328        C329   1.407   1_655  A
C328        H332   1.083       .  S
C329        C330   1.402       .  A
C329        C433   1.487       .  S
C330        H333   1.084       .  S
C334        C335   1.412       .  A
C334        C339   1.409       .  A
C334        C409   1.499       .  S
C335        C336   1.408       .  A
C335        H340   1.082       .  S
C336        C337   1.401       .  A
C336        C445   1.486       .  S
C337        C338   1.404       .  A
C337        H341   1.084       .  S
C338        C339   1.400       .  A
C338        C397   1.488       .  S
C339        H342   1.083       .  S
O343        C354   1.295       .  A
O343      Zr1531   2.451   1_455  S
O344        C355   1.297       .  A
O344       Zr378   2.466       .  S
O345        C356   1.292       .  A
O345      Zr1503   2.444   1_455  S
O346        C357   1.294       .  A
O346       Zr351   2.456       .  S
O347        C357   1.288       .  A
O347       Zr381   2.420       .  S
O348        C356   1.291       .  A
O348       Zr956   2.424       .  S
O349        C355   1.287       .  A
O349       Zr351   2.409       .  S
O350        C354   1.289       .  A
O350      Zr1503   2.424   1_455  S
Zr351      O1497   2.444       .  S
Zr351      O1502   2.424       .  S
Zr351       O352   2.338       .  S
Zr351      O1505   2.340       .  S
Zr351       O361   2.332       .  S
Zr351       O359   2.344       .  S
O352       Zr378   2.337       .  S
O352       Zr381   2.335       .  S
O353      Zr1503   2.340   1_455  S
O353      Zr1531   2.346   1_455  S
O353       Zr956   2.346       .  S
C354        C553   1.490       .  S
C355        C400   1.471       .  S
C356        C481   1.474       .  S
C357        C529   1.467       .  S
H358        O359   0.965       .  S
O359       Zr378   2.342       .  S
O359      Zr2108   2.341       .  S
H360        O361   0.966       .  S
O361       Zr379   2.340       .  S
O361       Zr381   2.342       .  S
O362        C385   1.298       .  A
O362       Zr954   2.471       .  S
O363        C962   1.295       .  A
O364       C1539   1.295   1_455  A
O364       Zr380   2.465       .  S
O365        C388   1.295       .  A
O365       Zr381   2.457       .  S
O366       Zr381   2.454       .  S
O367        C966   1.297       .  A
O367       Zr380   2.464       .  S
O368       C1543   1.294       .  A
O368       Zr382   2.454       .  S
O369        C392   1.293       .  A
O369       Zr382   2.449       .  S
O370        C391   1.287       .  A
O370       Zr380   2.416       .  S
O371        C968   1.290       .  A
O371       Zr381   2.416       .  S
O372        C387   1.289       .  A
O372       Zr954   2.413       .  S
O373        C390   1.289       .  A
O373      Zr1531   2.417   1_455  S
O374        C389   1.290       .  A
O375        C388   1.290       .  A
O375       Zr378   2.420       .  S
O376        C385   1.283       .  A
O376       Zr382   2.402       .  S
O377        C386   1.287       .  A
Zr378       O938   2.471       .  S
Zr378       O948   2.413       .  S
Zr378       O960   2.339       .  S
Zr378       O396   2.341       .  S
Zr379      O1495   2.451       .  S
Zr379      O1525   2.417       .  S
Zr379      O1505   2.346       .  S
Zr379       O383   2.340       .  S
Zr379       O970   2.331       .  S
Zr380       O924   2.424   1_545  S
Zr380       O929   2.346   1_545  S
Zr380      O2087   2.341   1_445  S
Zr380      O1536   2.342   1_455  S
Zr380      O1546   2.334   1_455  S
Zr381       O383   2.346       .  S
Zr381       O396   2.339       .  S
Zr382       O959   2.339   1_545  S
Zr382       O384   2.338       .  S
Zr382       O972   2.339       .  S
Zr382       O394   2.326       .  S
O383       Zr958   2.339       .  S
O384       Zr954   2.339       .  S
O384      Zr1532   2.342       .  S
C385        C520   1.495       .  S
C386        C436   1.467       .  S
C386        O939   1.295       .  A
C387        C421   1.501       .  S
C387       O1516   1.295       .  A
C388        C493   1.480       .  S
C389        C412   1.472       .  S
C390        C745   1.486       .  S
C390        O943   1.297       .  A
C391        C544   1.463       .  S
C391       O1520   1.294   1_455  A
C392        O947   1.290   1_545  A
H393       O1546   0.965   1_455  S
O394       Zr955   2.331   1_545  S
O394      Zr1532   2.334       .  S
O394       H1545   0.965       .  S
H395        O972   0.966       .  S
O396       Zr958   2.339       .  S
O396        H971   0.966       .  S
C397        C398   1.410       .  A
C397        C402   1.414       .  A
C398        C399   1.404       .  A
C398        H407   1.083       .  S
C399        C400   1.411       .  A
C399        S403   1.805       .  S
C400        C401   1.402       .  A
C401        C402   1.394       .  A
C401        H408   1.081       .  S
C402        S404   1.805       .  S
S403        H406   1.405       .  S
S404        H405   1.407       .  S
C409        C410   1.413       .  A
C409        C414   1.419       .  A
C410        C411   1.402       .  A
C410        H419   1.084       .  S
C411        C412   1.408       .  A
C411        S415   1.801       .  S
C412        C413   1.400       .  A
C413        C414   1.398       .  A
C413        H420   1.084       .  S
C414        S416   1.804       .  S
S415        H418   1.406       .  S
S416        H417   1.407       .  S
C421        C422   1.412       .  A
C421       C1578   1.423       .  A
C422        C423   1.390       .  A
C422        H431   1.083       .  S
C423       C1576   1.406       .  A
C423        S427   1.806       .  S
C424       C1575   1.406   1_455  A
C424        C425   1.403       .  A
C425        C426   1.408       .  A
C425        H432   1.084       .  S
C426       C1573   1.423   1_455  A
C426        S428   1.799       .  S
S427        H430   1.403       .  S
S428        H429   1.402       .  S
C433       C1586   1.410   1_455  A
C433        C438   1.414       .  A
C434       C1585   1.410       .  A
C434        C435   1.400       .  A
C434        H443   1.084       .  S
C435        C436   1.408       .  A
C435        S439   1.806       .  S
C436       C1589   1.403       .  A
C437       C1588   1.403   1_455  A
C437        C438   1.397       .  A
C437        H444   1.085       .  S
C438        S440   1.805       .  S
S439       H1018   1.405       .  S
S440        H441   1.406       .  S
H442       S1015   1.405       .  S
C445        C446   1.404       .  A
C445        C450   1.414       .  A
C446        C447   1.402       .  A
C446        H455   1.084       .  S
C447        C448   1.416       .  A
C447        S451   1.801       .  S
C448       C1601   1.404       .  A
C448       C1479   1.489       .  S
C449       C1600   1.404   1_455  A
C449       C1602   1.401   1_455  A
C449        H456   1.084       .  S
C450       C1601   1.401       .  A
C450        S452   1.801       .  S
S451        H454   1.406       .  S
S452        H453   1.406       .  S
C457       C1038   1.416   1_545  A
C457        C678   1.486   1_556  S
C458        H467   1.084       .  S
C459        C460   1.416       .  A
C460        C461   1.399   1_545  A
C461       C1038   1.389       .  A
C461       H1044   1.085       .  S
C462       C1033   1.416       .  A
C462       C1037   1.389       .  A
C462        S464   1.798       .  S
S464        H465   1.408   1_556  S
H468       C1037   1.085       .  S
C469        C470   1.403       .  A
C469        C474   1.408   1_545  A
C470        C471   1.404       .  A
C470        H479   1.084       .  S
C471        C472   1.419       .  A
C471        S475   1.802       .  S
C472       C1049   1.407   1_545  A
C473       C1048   1.407       .  A
C473       C1050   1.391       .  A
C473        H480   1.082       .  S
C474       C1049   1.391       .  A
C474       S1052   1.807       .  S
S476       C1050   1.807       .  S
S476        H477   1.405       .  S
C481        C482   1.401       .  A
C481        C486   1.412       .  A
C482        C483   1.391       .  A
C482        H491   1.081       .  S
C483        C484   1.414       .  A
C483       S1063   1.805       .  S
C484        C485   1.408       .  A
C485        C486   1.404       .  A
C485        H492   1.084       .  S
C486        S488   1.804       .  S
S487       C1059   1.805   1_545  S
S487       H1066   1.407       .  S
S488        H489   1.407       .  S
H490       S1063   1.407       .  S
C493        C494   1.405       .  A
C493        C498   1.414       .  A
C494        C495   1.405       .  A
C494        H503   1.082       .  S
C495        C496   1.415       .  A
C495        S499   1.804       .  S
C496        C497   1.399       .  A
C497        C498   1.391       .  A
C497        H504   1.085       .  S
C498       S1076   1.800       .  S
S499        H502   1.406       .  S
S500       C1074   1.800   1_545  S
S500        H501   1.407       .  S
C505       C1082   1.407   1_545  A
C505        C510   1.414       .  A
C506       C1081   1.407       .  A
C506        C507   1.401       .  A
C506        H515   1.084       .  S
C507        C508   1.413       .  A
C507        S511   1.804       .  S
C508        C509   1.405       .  A
C509       C1086   1.400       .  A
C509        H516   1.083       .  S
C510       C1085   1.400       .  A
C510        S512   1.804       .  S
S511        H514   1.406       .  S
S512        H513   1.406       .  S
C517        C518   1.396       .  A
C517        C522   1.410       .  A
C518        C519   1.394       .  A
C518        H527   1.083       .  S
C519        C520   1.426       .  A
C519        S523   1.816       .  S
C520        C521   1.409       .  A
C521        C522   1.405       .  A
C521        H528   1.081       .  S
C522        S524   1.804       .  S
S523        H526   1.406       .  S
S524        H525   1.403       .  S
C529        C530   1.400       .  A
C529        C534   1.414       .  A
C530        C531   1.398       .  A
C530        H539   1.083       .  S
C531        C532   1.416       .  A
C531        S535   1.805       .  S
C532        C533   1.401       .  A
C533        C534   1.399       .  A
C533        H540   1.084       .  S
C534        S536   1.806       .  S
S535        H538   1.406       .  S
S536        H537   1.402       .  S
C541        C542   1.407       .  A
C542        C543   1.398       .  A
C542        H551   1.084       .  S
C543        C544   1.410       .  A
C543       S1699   1.809   1_455  S
C544        C545   1.403       .  A
C545        H552   1.085       .  S
C546        S548   1.803   1_554  S
S547       C1695   1.809       .  S
S547        H550   1.403       .  S
S548        H549   1.406       .  S
C553        C554   1.408       .  A
C553        C558   1.419       .  A
C555        S559   1.804   1_554  S
C556        C557   1.400       .  A
C557        C558   1.392       .  A
C557        H564   1.085       .  S
C558        S560   1.804       .  S
S559        H562   1.405       .  S
S560       H1713   1.405   1_455  S
H561       S1712   1.405       .  S
C565        C566   1.406       .  A
C565        C570   1.417       .  A
C566        C567   1.403       .  A
C566        H575   1.084       .  S
C567        C568   1.417       .  A
C567        S571   1.804       .  S
C568        C569   1.404       .  A
C569        C570   1.400       .  A
C569        H576   1.084       .  S
C570        S572   1.804       .  S
S571        H574   1.407       .  S
S572        H573   1.407       .  S
C577        C866   1.404       .  A
C577        C582   1.398       .  A
C577       C1132   1.476       .  S
C578        C865   1.404       .  A
C578        C579   1.411       .  A
C578        H583   1.083       .  S
C579        C580   1.408       .  A
C579        C853   1.492       .  S
C580        C869   1.404       .  A
C580        H584   1.084       .  S
C581        C868   1.404       .  A
C581        C582   1.396       .  A
C581       C1117   1.480       .  S
C582        H585   1.085       .  S
C586        C587   1.406       .  A
C586        C591   1.399       .  A
C586        C805   1.474       .  S
C587        C588   1.410       .  A
C587        H592   1.083       .  S
C588        C589   1.407       .  A
C588        C856   1.491       .  S
C589        C590   1.403       .  A
C589        H593   1.084       .  S
C590        C591   1.396       .  A
C590        C820   1.478       .  S
C591        H594   1.085       .  S
C595        C596   1.403       .  A
C595        C600   1.407       .  A
C595        C772   1.482       .  S
C596        C597   1.399       .  A
C596        H601   1.084       .  S
C597        C598   1.404       .  A
C597        C784   1.478       .  S
C598        C599   1.402       .  A
C598        H602   1.084       .  S
C599        C600   1.405       .  A
C599        C796   1.485       .  S
C600        H603   1.084       .  S
C604        C605   1.403       .  A
C604        C609   1.401       .  A
C604        C757   1.472       .  S
C605        C606   1.404       .  A
C605        H610   1.084       .  S
C606        C607   1.404       .  A
C606        C793   1.487       .  S
C607        C608   1.407       .  A
C607        H611   1.084       .  S
C608        C609   1.400       .  A
C608        C748   1.483       .  S
C609        H612   1.084       .  S
C613        C614   1.404   1_455  A
C613        C618   1.400       .  A
C613        C712   1.475       .  S
C614        C615   1.407       .  A
C614        H619   1.083       .  S
C615        C616   1.405       .  A
C615       C1888   1.489       .  S
C616        C617   1.407   1_655  A
C616        H620   1.083       .  S
C617        C618   1.402       .  A
C617        C721   1.487       .  S
C618        H621   1.084       .  S
C622        C623   1.412       .  A
C622        C627   1.409       .  A
C622        C697   1.499       .  S
C623        C624   1.408       .  A
C623        H628   1.082       .  S
C624        C625   1.401       .  A
C624        C733   1.486       .  S
C625        C626   1.404       .  A
C625        H629   1.084       .  S
C626        C627   1.400       .  A
C626        C685   1.488       .  S
C627        H630   1.083       .  S
O631        C642   1.295       .  A
O631      Zr1819   2.451   1_455  S
O632        C643   1.297       .  A
O632       Zr666   2.466   1_565  S
O633        C644   1.292       .  A
O633      Zr1791   2.444   1_455  S
O634        C645   1.294       .  A
O634       Zr639   2.456       .  S
O635        C645   1.288       .  A
O635       Zr669   2.420       .  S
O636        C644   1.291       .  A
O637        C643   1.287       .  A
O637       Zr639   2.409       .  S
O638        C642   1.289       .  A
O638      Zr1791   2.424   1_455  S
Zr639      O1785   2.444       .  S
Zr639      O1790   2.424       .  S
Zr639       O640   2.338       .  S
Zr639      O1793   2.340       .  S
Zr639       O649   2.332       .  S
Zr639       O647   2.344       .  S
O640       Zr666   2.337   1_565  S
O640       Zr669   2.335       .  S
O641      Zr1791   2.340   1_455  S
O641      Zr1819   2.346   1_455  S
C642        C841   1.490       .  S
C643        C688   1.471       .  S
C644        C769   1.474       .  S
C645        C817   1.467       .  S
H646        O647   0.965       .  S
O647       Zr666   2.342   1_565  S
O647      Zr1244   2.341   1_565  S
H648        O649   0.966       .  S
O649       Zr667   2.340       .  S
O649       Zr669   2.342       .  S
O650        C673   1.298       .  A
O651       Zr955   2.457   1_545  S
O652       C1827   1.295   1_455  A
O652       Zr668   2.465       .  S
O653        C676   1.295       .  A
O653       Zr669   2.457       .  S
O654        C965   1.294       .  A
O654       Zr669   2.454   1_556  S
O655       Zr668   2.464       .  S
O656       C1831   1.294       .  A
O656       Zr670   2.454       .  S
O657        C680   1.293       .  A
O657       Zr670   2.449   1_556  S
O658        C679   1.287       .  A
O658       Zr668   2.416       .  S
O659       Zr669   2.416       .  S
O660        C675   1.289       .  A
O661        C678   1.289   1_566  A
O661      Zr1819   2.417   1_456  S
O662        C677   1.290       .  A
O662       Zr955   2.421       .  S
O663        C676   1.290       .  A
O663       Zr666   2.420   1_565  S
O664        C673   1.283       .  A
O664       Zr670   2.402       .  S
O665        C674   1.287       .  A
O665       Zr958   2.414       .  S
Zr666       O684   2.341       .  S
Zr667      O1783   2.451       .  S
Zr667       O939   2.457   1_564  S
Zr667      O1813   2.417   1_554  S
Zr667       O950   2.421   1_554  S
Zr667      O1793   2.346       .  S
Zr667       O671   2.340       .  S
Zr668      O1223   2.341   1_455  S
Zr668      O1824   2.342   1_455  S
Zr668      O1834   2.334   1_455  S
Zr669       O671   2.346       .  S
Zr669       O684   2.339   1_565  S
Zr670       O953   2.414   1_554  S
Zr670       O672   2.338       .  S
Zr670       O682   2.326       .  S
O672      Zr1820   2.342       .  S
C673        C808   1.495       .  S
C674        C724   1.467       .  S
C675        C709   1.501       .  S
C675       O1804   1.295       .  A
C676        C781   1.480       .  S
C677        C700   1.472       .  S
C677        O942   1.294       .  A
C679        C832   1.463       .  S
C679       O1808   1.294   1_455  A
C680       C1048   1.487       .  S
H681       O1834   0.965   1_455  S
O682      Zr1820   2.334       .  S
O682       H1833   0.965       .  S
C685        C686   1.410       .  A
C685        C690   1.414       .  A
C686        C687   1.404       .  A
C686        H695   1.083       .  S
C687        C688   1.411       .  A
C687        S691   1.805       .  S
C688        C689   1.402       .  A
C689        C690   1.394       .  A
C689        H696   1.081       .  S
C690        S692   1.805       .  S
S691        H694   1.405       .  S
S692        H693   1.407       .  S
C697        C698   1.413       .  A
C697        C702   1.419       .  A
C698        C699   1.402       .  A
C698        H707   1.084       .  S
C699        C700   1.408       .  A
C699        S703   1.801       .  S
C700        C701   1.400       .  A
C701        C702   1.398       .  A
C701        H708   1.084       .  S
C702        S704   1.804       .  S
S703        H706   1.406       .  S
S704        H705   1.407       .  S
C709        C710   1.412       .  A
C709       C1866   1.423       .  A
C710        C711   1.390       .  A
C710        H719   1.083       .  S
C711       C1864   1.406       .  A
C711        S715   1.806       .  S
C712       C1863   1.406   1_455  A
C712        C713   1.403       .  A
C713        C714   1.408       .  A
C713        H720   1.084       .  S
C714       C1861   1.423   1_455  A
C714        S716   1.799       .  S
S715        H718   1.403       .  S
S716        H717   1.402       .  S
C721       C1874   1.410   1_455  A
C721        C726   1.414       .  A
C722       C1873   1.410       .  A
C722        C723   1.400       .  A
C722        H731   1.084       .  S
C723        C724   1.408       .  A
C723        S727   1.806       .  S
C724       C1877   1.403       .  A
C725       C1876   1.403   1_455  A
C725        C726   1.397       .  A
C725        H732   1.085       .  S
C726        S728   1.805       .  S
S728        H729   1.406       .  S
C733        C734   1.404       .  A
C733        C738   1.414       .  A
C734        C735   1.402       .  A
C734        H743   1.084       .  S
C735        C736   1.416       .  A
C735        S739   1.801       .  S
C736       C1889   1.404       .  A
C736       C1767   1.489       .  S
C737       C1888   1.404   1_455  A
C737       C1890   1.401   1_455  A
C737        H744   1.084       .  S
C738       C1889   1.401       .  A
C738        S740   1.801       .  S
S739        H742   1.406       .  S
S740        H741   1.406       .  S
C745       C1034   1.408       .  A
C746       C1033   1.408       .  A
C746       C1035   1.408       .  A
C746        H755   1.084   1_556  S
C747       C1034   1.408       .  A
C747        C748   1.416       .  A
C747       S1039   1.803       .  S
C748        C749   1.399       .  A
C750        S752   1.798       .  S
S751       C1035   1.803       .  S
S751       H1042   1.406       .  S
S752        H753   1.408       .  S
H754       S1039   1.406       .  S
C757        C758   1.403       .  A
C757        C762   1.408       .  A
C758        C759   1.404       .  A
C758        H767   1.084       .  S
C759        C760   1.419       .  A
C759        S763   1.802       .  S
C760        C968   1.487       .  S
C761        H768   1.082       .  S
S763       H1054   1.408       .  S
S764        H765   1.405       .  S
H766       S1051   1.408   1_554  S
C769        C770   1.401       .  A
C769        C774   1.412       .  A
C770        C771   1.391       .  A
C770        H779   1.081       .  S
C771        C772   1.414       .  A
C772        C773   1.408       .  A
C773        C774   1.404       .  A
C773        H780   1.084       .  S
C774        S776   1.804       .  S
S776        H777   1.407       .  S
C781        C782   1.405       .  A
C781        C786   1.414       .  A
C782        C783   1.405       .  A
C782        H791   1.082       .  S
C783        C784   1.415       .  A
C783        S787   1.804       .  S
C784        C785   1.399       .  A
C785        C786   1.391       .  A
C785        H792   1.085   1_565  S
S787        H790   1.406       .  S
S788        H789   1.407       .  S
C793        C798   1.414       .  A
C794        C795   1.401       .  A
C794        H803   1.084       .  S
C795        C796   1.413       .  A
C795        S799   1.804       .  S
C796        C797   1.405   1_565  A
C797        H804   1.083       .  S
C798        S800   1.804       .  S
S799        H802   1.406       .  S
S800        H801   1.406       .  S
C805        C806   1.396       .  A
C805        C810   1.410       .  A
C806        C807   1.394       .  A
C806        H815   1.083       .  S
C807        C808   1.426       .  A
C807        S811   1.816       .  S
C808        C809   1.409       .  A
C809        C810   1.405       .  A
C809        H816   1.081       .  S
C810        S812   1.804       .  S
S811        H814   1.406       .  S
S812        H813   1.403       .  S
C817        C818   1.400       .  A
C817        C822   1.414       .  A
C818        C819   1.398       .  A
C818        H827   1.083       .  S
C819        C820   1.416       .  A
C819        S823   1.805       .  S
C820        C821   1.401       .  A
C821        C822   1.399       .  A
C821        H828   1.084       .  S
C822        S824   1.806       .  S
S823        H826   1.406       .  S
S824        H825   1.402       .  S
C829        C830   1.407       .  A
C829       C1122   1.411       .  A
C829        C869   1.480       .  S
C830        C831   1.398       .  A
C830        H839   1.084       .  S
C831        C832   1.410       .  A
C831       S1987   1.809   1_455  S
C832        C833   1.403       .  A
C833       C1122   1.399       .  A
C833        H840   1.085   1_554  S
C834       C1117   1.411       .  A
C834       C1121   1.399       .  A
C834        S836   1.803       .  S
S835       C1983   1.809       .  S
S835        H838   1.403       .  S
S836        H837   1.406       .  S
C841        C842   1.408       .  A
C841        C846   1.419       .  A
C842       C1131   1.404       .  A
C842       H1139   1.077   1_554  S
C843       C1130   1.404       .  A
C843       C1132   1.410       .  A
C843        S847   1.804       .  S
C844       C1131   1.410       .  A
C844        C845   1.400       .  A
C844        C865   1.476       .  S
C845        C846   1.392       .  A
C845        H852   1.085       .  S
C846        S848   1.804       .  S
S847        H850   1.405       .  S
S848       H2001   1.405   1_455  S
H849       S2000   1.405       .  S
H851       C1130   1.077       .  S
C853        C854   1.406       .  A
C853        C858   1.417       .  A
C854        C855   1.403       .  A
C854        H863   1.084       .  S
C855        C856   1.417       .  A
C855        S859   1.804       .  S
C856        C857   1.404       .  A
C857        C858   1.400       .  A
C857        H864   1.084       .  S
C858        S860   1.804       .  S
S859        H862   1.407       .  S
S860        H861   1.407       .  S
C865        C870   1.398       .  A
C866        C867   1.411       .  A
C866        H871   1.083       .  S
C867        C868   1.408       .  A
C867       C1141   1.492       .  S
C868        H872   1.084       .  S
C869        C870   1.396       .  A
C870        H873   1.085       .  S
C874        C875   1.406       .  A
C874        C879   1.399       .  A
C874       C1093   1.474       .  S
C875        C876   1.410       .  A
C875        H880   1.083       .  S
C876        C877   1.407       .  A
C876       C1144   1.491       .  S
C877        C878   1.403       .  A
C877        H881   1.084       .  S
C878        C879   1.396       .  A
C878       C1108   1.478       .  S
C879        H882   1.085       .  S
C883        C884   1.403       .  A
C883        C888   1.407       .  A
C883       C1060   1.482       .  S
C884        C885   1.399       .  A
C884        H889   1.084       .  S
C885        C886   1.404       .  A
C885       C1072   1.478       .  S
C886        C887   1.402       .  A
C886        H890   1.084       .  S
C887        C888   1.405       .  A
C887       C1084   1.485       .  S
C888        H891   1.084       .  S
C892        C893   1.403       .  A
C892        C897   1.401       .  A
C892       C1045   1.472       .  S
C893        C894   1.404       .  A
C893        H898   1.084       .  S
C894        C895   1.404       .  A
C894       C1081   1.487       .  S
C895        C896   1.407       .  A
C895        H899   1.084       .  S
C896        C897   1.400       .  A
C896       C1036   1.483       .  S
C897        H900   1.084       .  S
C901        C902   1.404   1_455  A
C901        C906   1.400       .  A
C901       C1000   1.475       .  S
C902        C903   1.407       .  A
C902        H907   1.083       .  S
C903        C904   1.405       .  A
C903       C2176   1.489       .  S
C904        C905   1.407   1_655  A
C904        H908   1.083       .  S
C905        C906   1.402       .  A
C905       C1009   1.487       .  S
C906        H909   1.084       .  S
C910        C911   1.412       .  A
C910        C915   1.409       .  A
C910        C985   1.499       .  S
C911        C912   1.408       .  A
C911        H916   1.082       .  S
C912        C913   1.401       .  A
C912       C1021   1.486       .  S
C913        C914   1.404       .  A
C913        H917   1.084       .  S
C914        C915   1.400       .  A
C914        C973   1.488       .  S
C915        H918   1.083       .  S
O919        C930   1.295       .  A
O919      Zr2107   2.451   1_455  S
O920        C931   1.297       .  A
O920       Zr954   2.466   1_565  S
O921        C932   1.292       .  A
O921      Zr2079   2.444   1_455  S
O922        C933   1.294       .  A
O922       Zr927   2.456       .  S
O923        C933   1.288       .  A
O923       Zr957   2.420       .  S
O924        C932   1.291       .  A
O925        C931   1.287       .  A
O925       Zr927   2.409       .  S
O926        C930   1.289       .  A
O926      Zr2079   2.424   1_455  S
Zr927      O2073   2.444       .  S
Zr927      O2078   2.424       .  S
Zr927       O928   2.338       .  S
Zr927      O2081   2.340       .  S
Zr927       O937   2.332       .  S
Zr927       O935   2.344       .  S
O928       Zr954   2.337   1_565  S
O928       Zr957   2.335       .  S
O929      Zr2079   2.340   1_455  S
O929      Zr2107   2.346   1_455  S
C930       C1129   1.490       .  S
C931        C976   1.471       .  S
C932       C1057   1.474       .  S
C933       C1105   1.467       .  S
H934        O935   0.965       .  S
O935       Zr954   2.342   1_565  S
O935      Zr1532   2.341   1_565  S
H936        O937   0.966       .  S
O937       Zr955   2.340       .  S
O937       Zr957   2.342       .  S
O938        C961   1.298       .  A
O940       C2115   1.295   1_455  A
O940       Zr956   2.465       .  S
O941        C964   1.295       .  A
O941       Zr957   2.457       .  S
O942       Zr957   2.454       .  S
O943       Zr956   2.464       .  S
O944       C2119   1.294       .  A
O944       Zr958   2.454       .  S
O945        C968   1.293       .  A
O945       Zr958   2.449       .  S
O946        C967   1.287       .  A
O946       Zr956   2.416       .  S
O947       Zr957   2.416       .  S
O948        C963   1.289       .  A
O949        C966   1.289   1_565  A
O949      Zr2107   2.417   1_455  S
O950        C965   1.290       .  A
O951        C964   1.290       .  A
O951       Zr954   2.420   1_565  S
O952        C961   1.283       .  A
O952       Zr958   2.402       .  S
O953        C962   1.287       .  A
Zr954       O972   2.341       .  S
Zr955      O2071   2.451       .  S
Zr955      O2101   2.417       .  S
Zr955      O2081   2.346       .  S
Zr955       O959   2.340       .  S
Zr956      O1511   2.341   1_455  S
Zr956      O2112   2.342   1_455  S
Zr956      O2122   2.334   1_455  S
Zr957       O959   2.346       .  S
Zr957       O972   2.339   1_565  S
Zr958       O960   2.338       .  S
Zr958       O970   2.326       .  S
O960      Zr2108   2.342       .  S
C961       C1096   1.495       .  S
C962       C1012   1.467       .  S
C963        C997   1.501       .  S
C963       O2092   1.295       .  A
C964       C1069   1.480       .  S
C965        C988   1.472       .  S
C967       C1120   1.463       .  S
C967       O2096   1.294   1_455  A
H969       O2122   0.965   1_455  S
O970      Zr2108   2.334       .  S
O970       H2121   0.965       .  S
C973        C974   1.410       .  A
C973        C978   1.414       .  A
C974        C975   1.404       .  A
C974        H983   1.083       .  S
C975        C976   1.411       .  A
C975        S979   1.805       .  S
C976        C977   1.402       .  A
C977        C978   1.394       .  A
C977        H984   1.081       .  S
C978        S980   1.805       .  S
S979        H982   1.405       .  S
S980        H981   1.407       .  S
C985        C986   1.413       .  A
C985        C990   1.419       .  A
C986        C987   1.402       .  A
C986        H995   1.084       .  S
C987        C988   1.408       .  A
C987        S991   1.801       .  S
C988        C989   1.400       .  A
C989        C990   1.398       .  A
C989        H996   1.084       .  S
C990        S992   1.804       .  S
S991        H994   1.406       .  S
S992        H993   1.407       .  S
C997        C998   1.412       .  A
C997       C2154   1.423       .  A
C998        C999   1.390       .  A
C998       H1007   1.083       .  S
C999       C2152   1.406       .  A
C999       S1003   1.806       .  S
C1000      C2151   1.406   1_455  A
C1000      C1001   1.403       .  A
C1001      C1002   1.408       .  A
C1001      H1008   1.084       .  S
C1002      C2149   1.423   1_455  A
C1002      S1004   1.799       .  S
S1003      H1006   1.403       .  S
S1004      H1005   1.402       .  S
C1009      C2162   1.410   1_455  A
C1009      C1014   1.414       .  A
C1010      C2161   1.410       .  A
C1010      C1011   1.400       .  A
C1010      H1019   1.084       .  S
C1011      C1012   1.408       .  A
C1011      S1015   1.806       .  S
C1012      C2165   1.403       .  A
C1013      C2164   1.403   1_455  A
C1013      C1014   1.397       .  A
C1013      H1020   1.085       .  S
C1014      S1016   1.805       .  S
S1016      H1017   1.406       .  S
C1021      C1022   1.404       .  A
C1021      C1026   1.414       .  A
C1022      C1023   1.402       .  A
C1022      H1031   1.084       .  S
C1023      C1024   1.416       .  A
C1023      S1027   1.801       .  S
C1024      C2177   1.404       .  A
C1024      C2055   1.489       .  S
C1025      C2176   1.404   1_455  A
C1025      C2178   1.401   1_455  A
C1025      H1032   1.084       .  S
C1026      C2177   1.401       .  A
C1026      S1028   1.801       .  S
S1027      H1030   1.406       .  S
S1028      H1029   1.406       .  S
C1034      H1043   1.084       .  S
C1035      C1036   1.416       .  A
C1036      C1037   1.399       .  A
C1038      S1040   1.798       .  S
S1040      H1041   1.408   1_556  S
C1045      C1046   1.403       .  A
C1045      C1050   1.408       .  A
C1046      C1047   1.404       .  A
C1046      H1055   1.084       .  S
C1047      C1048   1.419       .  A
C1047      S1051   1.802       .  S
C1049      H1056   1.082       .  S
S1052      H1053   1.405       .  S
C1057      C1058   1.401       .  A
C1057      C1062   1.412       .  A
C1058      C1059   1.391       .  A
C1058      H1067   1.081       .  S
C1059      C1060   1.414       .  A
C1060      C1061   1.408       .  A
C1061      C1062   1.404       .  A
C1061      H1068   1.084       .  S
C1062      S1064   1.804       .  S
S1064      H1065   1.407       .  S
C1069      C1070   1.405       .  A
C1069      C1074   1.414       .  A
C1070      C1071   1.405       .  A
C1070      H1079   1.082       .  S
C1071      C1072   1.415       .  A
C1071      S1075   1.804       .  S
C1072      C1073   1.399       .  A
C1073      C1074   1.391       .  A
C1073      H1080   1.085   1_565  S
S1075      H1078   1.406       .  S
S1076      H1077   1.407       .  S
C1081      C1086   1.414       .  A
C1082      C1083   1.401       .  A
C1082      H1091   1.084       .  S
C1083      C1084   1.413       .  A
C1083      S1087   1.804       .  S
C1084      C1085   1.405   1_565  A
C1085      H1092   1.083       .  S
C1086      S1088   1.804       .  S
S1087      H1090   1.406       .  S
S1088      H1089   1.406       .  S
C1093      C1094   1.396       .  A
C1093      C1098   1.410       .  A
C1094      C1095   1.394       .  A
C1094      H1103   1.083       .  S
C1095      C1096   1.426       .  A
C1095      S1099   1.816       .  S
C1096      C1097   1.409       .  A
C1097      C1098   1.405       .  A
C1097      H1104   1.081       .  S
C1098      S1100   1.804       .  S
S1099      H1102   1.406       .  S
S1100      H1101   1.403       .  S
C1105      C1106   1.400       .  A
C1105      C1110   1.414       .  A
C1106      C1107   1.398       .  A
C1106      H1115   1.083       .  S
C1107      C1108   1.416       .  A
C1107      S1111   1.805       .  S
C1108      C1109   1.401       .  A
C1109      C1110   1.399       .  A
C1109      H1116   1.084       .  S
C1110      S1112   1.806       .  S
S1111      H1114   1.406       .  S
S1112      H1113   1.402       .  S
C1117      C1118   1.407       .  A
C1118      C1119   1.398       .  A
C1118      H1127   1.084       .  S
C1119      C1120   1.410       .  A
C1119      S2275   1.809   1_455  S
C1120      C1121   1.403       .  A
C1121      H1128   1.085       .  S
C1122      S1124   1.803   1_554  S
S1123      C2271   1.809       .  S
S1123      H1126   1.403       .  S
S1124      H1125   1.406       .  S
C1129      C1130   1.408       .  A
C1129      C1134   1.419       .  A
C1131      S1135   1.804   1_554  S
C1132      C1133   1.400       .  A
C1133      C1134   1.392       .  A
C1133      H1140   1.085       .  S
C1134      S1136   1.804       .  S
S1135      H1138   1.405       .  S
S1136      H2289   1.405   1_455  S
H1137      S2288   1.405       .  S
C1141      C1142   1.406       .  A
C1141      C1146   1.417       .  A
C1142      C1143   1.403       .  A
C1142      H1151   1.084       .  S
C1143      C1144   1.417       .  A
C1143      S1147   1.804       .  S
C1144      C1145   1.404       .  A
C1145      C1146   1.400       .  A
C1145      H1152   1.084       .  S
C1146      S1148   1.804       .  S
S1147      H1150   1.407       .  S
S1148      H1149   1.407       .  S
C1153      C1442   1.404       .  A
C1153      C1158   1.398       .  A
C1153      C1708   1.476       .  S
C1154      C1441   1.404       .  A
C1154      C1155   1.411       .  A
C1154      H1159   1.083       .  S
C1155      C1156   1.408       .  A
C1155      C1429   1.492       .  S
C1156      C1445   1.404       .  A
C1156      H1160   1.084       .  S
C1157      C1444   1.404       .  A
C1157      C1158   1.396       .  A
C1157      C1693   1.480       .  S
C1158      H1161   1.085       .  S
C1162      C1163   1.406       .  A
C1162      C1167   1.399       .  A
C1162      C1381   1.474       .  S
C1163      C1164   1.410       .  A
C1163      H1168   1.083       .  S
C1164      C1165   1.407       .  A
C1164      C1432   1.491       .  S
C1165      C1166   1.403       .  A
C1165      H1169   1.084       .  S
C1166      C1167   1.396       .  A
C1166      C1396   1.478       .  S
C1167      H1170   1.085       .  S
C1171      C1172   1.403       .  A
C1171      C1176   1.407       .  A
C1171      C1348   1.482       .  S
C1172      C1173   1.399       .  A
C1172      H1177   1.084       .  S
C1173      C1174   1.404       .  A
C1173      C1360   1.478       .  S
C1174      C1175   1.402       .  A
C1174      H1178   1.084       .  S
C1175      C1176   1.405       .  A
C1175      C1372   1.485       .  S
C1176      H1179   1.084       .  S
C1180      C1181   1.403       .  A
C1180      C1185   1.401       .  A
C1180      C1333   1.472       .  S
C1181      C1182   1.404       .  A
C1181      H1186   1.084       .  S
C1182      C1183   1.404       .  A
C1182      C1369   1.487       .  S
C1183      C1184   1.407       .  A
C1183      H1187   1.084       .  S
C1184      C1185   1.400       .  A
C1184      C1324   1.483       .  S
C1185      H1188   1.084       .  S
C1189      C1190   1.404       .  A
C1189      C1194   1.400       .  A
C1189      C1288   1.475       .  S
C1190      C1191   1.407       .  A
C1190      H1195   1.083       .  S
C1191      C1192   1.405       .  A
C1192      C1193   1.407       .  A
C1192      H1196   1.083       .  S
C1193      C1194   1.402       .  A
C1193      C1297   1.487       .  S
C1194      H1197   1.084       .  S
C1198      C1199   1.412       .  A
C1198      C1203   1.409       .  A
C1198      C1273   1.499       .  S
C1199      C1200   1.408       .  A
C1199      H1204   1.082       .  S
C1200      C1201   1.401       .  A
C1200      C1309   1.486       .  S
C1201      C1202   1.404       .  A
C1201      H1205   1.084       .  S
C1202      C1203   1.400       .  A
C1202      C1261   1.488       .  S
C1203      H1206   1.083       .  S
O1207      C1218   1.295       .  A
O1208      C1219   1.297       .  A
O1208     Zr1242   2.466       .  S
O1209      C1220   1.292       .  A
O1210      C1221   1.294       .  A
O1210     Zr1215   2.456       .  S
O1211      C1221   1.288       .  A
O1211     Zr1245   2.420       .  S
O1212      C1220   1.291       .  A
O1212     Zr1820   2.424       .  S
O1213      C1219   1.287       .  A
O1213     Zr1215   2.409       .  S
O1214      C1218   1.289       .  A
Zr1215     O1216   2.338       .  S
Zr1215     O1225   2.332       .  S
Zr1215     O1223   2.344       .  S
O1216     Zr1242   2.337       .  S
O1216     Zr1245   2.335       .  S
O1217     Zr1820   2.346       .  S
C1218      C1417   1.490       .  S
C1219      C1264   1.471       .  S
C1220      C1345   1.474       .  S
C1221      C1393   1.467       .  S
H1222      O1223   0.965       .  S
O1223     Zr1242   2.342       .  S
H1224      O1225   0.966       .  S
O1225     Zr1243   2.340       .  S
O1225     Zr1245   2.342       .  S
O1226      C1249   1.298       .  A
O1226     Zr1818   2.471       .  S
O1227      C1826   1.295       .  A
O1227     Zr1531   2.457       .  S
O1228     Zr1244   2.465       .  S
O1229      C1252   1.295       .  A
O1229     Zr1245   2.457       .  S
O1230      C1541   1.294       .  A
O1230     Zr1245   2.454   1_556  S
O1231      C1830   1.297       .  A
O1231     Zr1244   2.464       .  S
O1232     Zr1246   2.454       .  S
O1233      C1256   1.293       .  A
O1233     Zr1246   2.449   1_556  S
O1234      C1255   1.287       .  A
O1234     Zr1244   2.416       .  S
O1235      C1832   1.290   1_554  A
O1235     Zr1245   2.416       .  S
O1236      C1251   1.289       .  A
O1236     Zr1818   2.413       .  S
O1237      C1254   1.289   1_556  A
O1238      C1253   1.290       .  A
O1238     Zr1531   2.421       .  S
O1239      C1252   1.290       .  A
O1239     Zr1242   2.420       .  S
O1240      C1249   1.283       .  A
O1240     Zr1246   2.402       .  S
O1241      C1250   1.287       .  A
O1241     Zr1534   2.414       .  S
Zr1242     O1802   2.471       .  S
Zr1242     O1812   2.413       .  S
Zr1242     O1824   2.339       .  S
Zr1242     O1260   2.341       .  S
Zr1243     O1515   2.457   1_554  S
Zr1243     O1526   2.421   1_554  S
Zr1243     O1247   2.340       .  S
Zr1243     O1834   2.331       .  S
Zr1244     O1788   2.424   1_545  S
Zr1244     O1793   2.346   1_545  S
Zr1245     O1247   2.346       .  S
Zr1245     O1260   2.339       .  S
Zr1246     O1529   2.414   1_554  S
Zr1246     O1823   2.339   1_545  S
Zr1246     O1248   2.338       .  S
Zr1246     O1836   2.339       .  S
Zr1246     O1258   2.326       .  S
O1247     Zr1822   2.339       .  S
O1248     Zr1818   2.339       .  S
C1249      C1384   1.495       .  S
C1250      C1300   1.467       .  S
C1250      O1803   1.295       .  A
C1251      C1285   1.501       .  S
C1252      C1357   1.480       .  S
C1253      C1276   1.472       .  S
C1253      O1518   1.294       .  A
C1254      C2185   1.486   1_554  S
C1254      O1807   1.297       .  A
C1255      C1408   1.463       .  S
C1256      C1624   1.487       .  S
C1256      O1811   1.290   1_546  A
O1258     Zr1819   2.331   1_545  S
H1259      O1836   0.966       .  S
O1260     Zr1822   2.339       .  S
O1260      H1835   0.966       .  S
C1261      C1262   1.410       .  A
C1261      C1266   1.414       .  A
C1262      C1263   1.404       .  A
C1262      H1271   1.083       .  S
C1263      C1264   1.411       .  A
C1263      S1267   1.805       .  S
C1264      C1265   1.402       .  A
C1265      C1266   1.394       .  A
C1265      H1272   1.081       .  S
C1266      S1268   1.805       .  S
S1267      H1270   1.405       .  S
S1268      H1269   1.407       .  S
C1273      C1274   1.413       .  A
C1273      C1278   1.419       .  A
C1274      C1275   1.402       .  A
C1274      H1283   1.084       .  S
C1275      C1276   1.408       .  A
C1275      S1279   1.801       .  S
C1276      C1277   1.400       .  A
C1277      C1278   1.398       .  A
C1277      H1284   1.084       .  S
C1278      S1280   1.804       .  S
S1279      H1282   1.406       .  S
S1280      H1281   1.407       .  S
C1285      C1286   1.412       .  A
C1286      C1287   1.390       .  A
C1286      H1295   1.083       .  S
C1287      S1291   1.806       .  S
C1288      C1289   1.403       .  A
C1289      C1290   1.408       .  A
C1289      H1296   1.084       .  S
C1290      S1292   1.799       .  S
S1291      H1294   1.403       .  S
S1292      H1293   1.402       .  S
C1297      C1302   1.414       .  A
C1298      C1299   1.400       .  A
C1298      H1307   1.084       .  S
C1299      C1300   1.408       .  A
C1299      S1303   1.806       .  S
C1301      C1302   1.397       .  A
C1301      H1308   1.085       .  S
C1302      S1304   1.805       .  S
S1303      H1882   1.405       .  S
S1304      H1305   1.406       .  S
H1306      S1879   1.405       .  S
C1309      C1310   1.404       .  A
C1309      C1314   1.414       .  A
C1310      C1311   1.402       .  A
C1310      H1319   1.084       .  S
C1311      C1312   1.416       .  A
C1311      S1315   1.801       .  S
C1313      H1320   1.084       .  S
C1314      S1316   1.801   1_655  S
S1315      H1318   1.406       .  S
S1316      H1317   1.406       .  S
C1321      C1610   1.408       .  A
C1321      C1902   1.416   1_545  A
C1321      C2118   1.486       .  S
C1322      C1609   1.408       .  A
C1322      C1611   1.408       .  A
C1322      H1331   1.084   1_556  S
C1323      C1610   1.408       .  A
C1323      C1324   1.416       .  A
C1323      S1615   1.803       .  S
C1324      C1325   1.399   1_545  A
C1325      C1902   1.389       .  A
C1325      H1908   1.085       .  S
C1326      C1897   1.416       .  A
C1326      C1901   1.389       .  A
C1326      S1328   1.798       .  S
S1327      C1611   1.803       .  S
S1327      H1618   1.406       .  S
S1328      H1329   1.408       .  S
H1330      S1615   1.406       .  S
H1332      C1901   1.085       .  S
C1333      C1334   1.403       .  A
C1333      C1338   1.408   1_545  A
C1334      C1335   1.404       .  A
C1334      H1343   1.084       .  S
C1335      C1336   1.419       .  A
C1335      S1339   1.802       .  S
C1336      C1913   1.407   1_545  A
C1336      C1544   1.487       .  S
C1337      C1912   1.407       .  A
C1337      C1914   1.391       .  A
C1337      H1344   1.082       .  S
C1338      C1913   1.391       .  A
C1338      S1916   1.807       .  S
S1339      H1630   1.408       .  S
S1340      C1914   1.807       .  S
S1340      H1341   1.405       .  S
H1342      S1627   1.408   1_554  S
C1345      C1346   1.401       .  A
C1345      C1350   1.412       .  A
C1346      C1347   1.391       .  A
C1346      H1355   1.081       .  S
C1347      C1348   1.414       .  A
C1347      S1927   1.805       .  S
C1348      C1349   1.408       .  A
C1349      C1350   1.404       .  A
C1349      H1356   1.084       .  S
C1350      S1352   1.804       .  S
S1351      C1923   1.805   1_545  S
S1351      H1930   1.407       .  S
S1352      H1353   1.407       .  S
H1354      S1927   1.407       .  S
C1357      C1358   1.405       .  A
C1357      C1362   1.414       .  A
C1358      C1359   1.405       .  A
C1358      H1367   1.082       .  S
C1359      C1360   1.415       .  A
C1359      S1363   1.804       .  S
C1360      C1361   1.399       .  A
C1361      C1362   1.391       .  A
C1361      H1368   1.085       .  S
C1362      S1940   1.800       .  S
S1363      H1366   1.406       .  S
S1364      C1938   1.800   1_545  S
S1364      H1365   1.407       .  S
C1369      C1946   1.407   1_545  A
C1369      C1374   1.414       .  A
C1370      C1945   1.407       .  A
C1370      C1371   1.401       .  A
C1370      H1379   1.084       .  S
C1371      C1372   1.413       .  A
C1371      S1375   1.804       .  S
C1372      C1373   1.405       .  A
C1373      C1950   1.400       .  A
C1373      H1380   1.083       .  S
C1374      C1949   1.400       .  A
C1374      S1376   1.804       .  S
S1375      H1378   1.406       .  S
S1376      H1377   1.406       .  S
C1381      C1382   1.396       .  A
C1381      C1386   1.410       .  A
C1382      C1383   1.394       .  A
C1382      H1391   1.083       .  S
C1383      C1384   1.426       .  A
C1383      S1387   1.816       .  S
C1384      C1385   1.409       .  A
C1385      C1386   1.405       .  A
C1385      H1392   1.081       .  S
C1386      S1388   1.804       .  S
S1387      H1390   1.406       .  S
S1388      H1389   1.403       .  S
C1393      C1394   1.400       .  A
C1393      C1398   1.414       .  A
C1394      C1395   1.398       .  A
C1394      H1403   1.083       .  S
C1395      C1396   1.416       .  A
C1395      S1399   1.805       .  S
C1396      C1397   1.401       .  A
C1397      C1398   1.399       .  A
C1397      H1404   1.084       .  S
C1398      S1400   1.806       .  S
S1399      H1402   1.406       .  S
S1400      H1401   1.402       .  S
C1405      C1406   1.407       .  A
C1405      C1698   1.411       .  A
C1405      C1445   1.480       .  S
C1406      C1407   1.398       .  A
C1406      H1415   1.084       .  S
C1407      C1408   1.410       .  A
C1408      C1409   1.403       .  A
C1409      C1698   1.399       .  A
C1409      H1416   1.085   1_554  S
C1410      C1693   1.411       .  A
C1410      C1697   1.399       .  A
C1410      S1412   1.803       .  S
S1411      H1414   1.403       .  S
S1412      H1413   1.406       .  S
C1417      C1418   1.408       .  A
C1417      C1422   1.419       .  A
C1418      C1707   1.404       .  A
C1418      H1715   1.077   1_554  S
C1419      C1706   1.404       .  A
C1419      C1708   1.410       .  A
C1419      S1423   1.804       .  S
C1420      C1707   1.410       .  A
C1420      C1421   1.400       .  A
C1420      C1441   1.476       .  S
C1421      C1422   1.392       .  A
C1421      H1428   1.085       .  S
C1422      S1424   1.804       .  S
S1423      H1426   1.405       .  S
H1427      C1706   1.077       .  S
C1429      C1430   1.406       .  A
C1429      C1434   1.417       .  A
C1430      C1431   1.403       .  A
C1430      H1439   1.084       .  S
C1431      C1432   1.417       .  A
C1431      S1435   1.804       .  S
C1432      C1433   1.404       .  A
C1433      C1434   1.400       .  A
C1433      H1440   1.084       .  S
C1434      S1436   1.804       .  S
S1435      H1438   1.407       .  S
S1436      H1437   1.407       .  S
C1441      C1446   1.398       .  A
C1442      C1443   1.411       .  A
C1442      H1447   1.083       .  S
C1443      C1444   1.408       .  A
C1443      C1717   1.492       .  S
C1444      H1448   1.084       .  S
C1445      C1446   1.396       .  A
C1446      H1449   1.085       .  S
C1450      C1451   1.406       .  A
C1450      C1455   1.399       .  A
C1450      C1669   1.474       .  S
C1451      C1452   1.410       .  A
C1451      H1456   1.083       .  S
C1452      C1453   1.407       .  A
C1452      C1720   1.491       .  S
C1453      C1454   1.403       .  A
C1453      H1457   1.084       .  S
C1454      C1455   1.396       .  A
C1454      C1684   1.478       .  S
C1455      H1458   1.085       .  S
C1459      C1460   1.403       .  A
C1459      C1464   1.407       .  A
C1459      C1636   1.482       .  S
C1460      C1461   1.399       .  A
C1460      H1465   1.084       .  S
C1461      C1462   1.404       .  A
C1461      C1648   1.478       .  S
C1462      C1463   1.402       .  A
C1462      H1466   1.084       .  S
C1463      C1464   1.405       .  A
C1463      C1660   1.485       .  S
C1464      H1467   1.084       .  S
C1468      C1469   1.403       .  A
C1468      C1473   1.401       .  A
C1468      C1621   1.472       .  S
C1469      C1470   1.404       .  A
C1469      H1474   1.084       .  S
C1470      C1471   1.404       .  A
C1470      C1657   1.487       .  S
C1471      C1472   1.407       .  A
C1471      H1475   1.084       .  S
C1472      C1473   1.400       .  A
C1472      C1612   1.483       .  S
C1473      H1476   1.084       .  S
C1477      C1478   1.404       .  A
C1477      C1482   1.400       .  A
C1477      C1576   1.475       .  S
C1478      C1479   1.407       .  A
C1478      H1483   1.083       .  S
C1479      C1480   1.405       .  A
C1480      C1481   1.407       .  A
C1480      H1484   1.083       .  S
C1481      C1482   1.402       .  A
C1481      C1585   1.487       .  S
C1482      H1485   1.084       .  S
C1486      C1487   1.412       .  A
C1486      C1491   1.409       .  A
C1486      C1561   1.499       .  S
C1487      C1488   1.408       .  A
C1487      H1492   1.082       .  S
C1488      C1489   1.401       .  A
C1488      C1597   1.486       .  S
C1489      C1490   1.404       .  A
C1489      H1493   1.084       .  S
C1490      C1491   1.400       .  A
C1490      C1549   1.488       .  S
C1491      H1494   1.083       .  S
O1495      C1506   1.295       .  A
O1496      C1507   1.297       .  A
O1496     Zr1530   2.466       .  S
O1497      C1508   1.292       .  A
O1498      C1509   1.294       .  A
O1498     Zr1503   2.456       .  S
O1499      C1509   1.288       .  A
O1499     Zr1533   2.420       .  S
O1500      C1508   1.291       .  A
O1500     Zr2108   2.424       .  S
O1501      C1507   1.287       .  A
O1501     Zr1503   2.409       .  S
O1502      C1506   1.289       .  A
Zr1503     O1504   2.338       .  S
Zr1503     O1513   2.332       .  S
Zr1503     O1511   2.344       .  S
O1504     Zr1530   2.337       .  S
O1504     Zr1533   2.335       .  S
O1505     Zr2108   2.346       .  S
C1506      C1705   1.490       .  S
C1507      C1552   1.471       .  S
C1508      C1633   1.474       .  S
C1509      C1681   1.467       .  S
H1510      O1511   0.965       .  S
O1511     Zr1530   2.342       .  S
H1512      O1513   0.966       .  S
O1513     Zr1531   2.340       .  S
O1513     Zr1533   2.342       .  S
O1514      C1537   1.298       .  A
O1514     Zr2106   2.471       .  S
O1515      C2114   1.295       .  A
O1516     Zr1532   2.465       .  S
O1517      C1540   1.295       .  A
O1517     Zr1533   2.457       .  S
O1518     Zr1533   2.454       .  S
O1519      C2118   1.297       .  A
O1519     Zr1532   2.464       .  S
O1520     Zr1534   2.454       .  S
O1521      C1544   1.293       .  A
O1521     Zr1534   2.449       .  S
O1522      C1543   1.287       .  A
O1522     Zr1532   2.416       .  S
O1523      C2120   1.290       .  A
O1523     Zr1533   2.416       .  S
O1524      C1539   1.289       .  A
O1524     Zr2106   2.413       .  S
O1525      C1542   1.289       .  A
O1526      C1541   1.290       .  A
O1527      C1540   1.290       .  A
O1527     Zr1530   2.420       .  S
O1528      C1537   1.283       .  A
O1528     Zr1534   2.402       .  S
O1529      C1538   1.287       .  A
Zr1530     O2090   2.471       .  S
Zr1530     O2100   2.413       .  S
Zr1530     O2112   2.339       .  S
Zr1530     O1548   2.341       .  S
Zr1531     O1535   2.340       .  S
Zr1531     O2122   2.331       .  S
Zr1532     O2076   2.424   1_545  S
Zr1532     O2081   2.346   1_545  S
Zr1533     O1535   2.346       .  S
Zr1533     O1548   2.339       .  S
Zr1534     O2111   2.339   1_545  S
Zr1534     O1536   2.338       .  S
Zr1534     O2124   2.339       .  S
Zr1534     O1546   2.326       .  S
O1535     Zr2110   2.339       .  S
O1536     Zr2106   2.339       .  S
C1537      C1672   1.495       .  S
C1538      C1588   1.467       .  S
C1538      O2091   1.295       .  A
C1539      C1573   1.501       .  S
C1540      C1645   1.480       .  S
C1541      C1564   1.472       .  S
C1542      C1897   1.486       .  S
C1542      O2095   1.297       .  A
C1543      C1696   1.463       .  S
C1544      O2099   1.290   1_545  A
O1546     Zr2107   2.331   1_545  S
H1547      O2124   0.966       .  S
O1548     Zr2110   2.339       .  S
O1548      H2123   0.966       .  S
C1549      C1550   1.410       .  A
C1549      C1554   1.414       .  A
C1550      C1551   1.404       .  A
C1550      H1559   1.083       .  S
C1551      C1552   1.411       .  A
C1551      S1555   1.805       .  S
C1552      C1553   1.402       .  A
C1553      C1554   1.394       .  A
C1553      H1560   1.081       .  S
C1554      S1556   1.805       .  S
S1555      H1558   1.405       .  S
S1556      H1557   1.407       .  S
C1561      C1562   1.413       .  A
C1561      C1566   1.419       .  A
C1562      C1563   1.402       .  A
C1562      H1571   1.084       .  S
C1563      C1564   1.408       .  A
C1563      S1567   1.801       .  S
C1564      C1565   1.400       .  A
C1565      C1566   1.398       .  A
C1565      H1572   1.084       .  S
C1566      S1568   1.804       .  S
S1567      H1570   1.406       .  S
S1568      H1569   1.407       .  S
C1573      C1574   1.412       .  A
C1574      C1575   1.390       .  A
C1574      H1583   1.083       .  S
C1575      S1579   1.806       .  S
C1576      C1577   1.403       .  A
C1577      C1578   1.408       .  A
C1577      H1584   1.084       .  S
C1578      S1580   1.799       .  S
S1579      H1582   1.403       .  S
S1580      H1581   1.402       .  S
C1585      C1590   1.414       .  A
C1586      C1587   1.400       .  A
C1586      H1595   1.084       .  S
C1587      C1588   1.408       .  A
C1587      S1591   1.806       .  S
C1589      C1590   1.397       .  A
C1589      H1596   1.085       .  S
C1590      S1592   1.805       .  S
S1591      H2170   1.405       .  S
S1592      H1593   1.406       .  S
H1594      S2167   1.405       .  S
C1597      C1598   1.404       .  A
C1597      C1602   1.414       .  A
C1598      C1599   1.402       .  A
C1598      H1607   1.084       .  S
C1599      C1600   1.416       .  A
C1599      S1603   1.801       .  S
C1601      H1608   1.084       .  S
C1602      S1604   1.801   1_655  S
S1603      H1606   1.406       .  S
S1604      H1605   1.406       .  S
C1609      C2190   1.416   1_545  A
C1609      C1830   1.486   1_556  S
C1610      H1619   1.084       .  S
C1611      C1612   1.416       .  A
C1612      C1613   1.399   1_545  A
C1613      C2190   1.389       .  A
C1613      H2196   1.085       .  S
C1614      C2185   1.416       .  A
C1614      C2189   1.389       .  A
C1614      S1616   1.798       .  S
S1616      H1617   1.408   1_556  S
H1620      C2189   1.085       .  S
C1621      C1622   1.403       .  A
C1621      C1626   1.408   1_545  A
C1622      C1623   1.404       .  A
C1622      H1631   1.084       .  S
C1623      C1624   1.419       .  A
C1623      S1627   1.802       .  S
C1624      C2201   1.407   1_545  A
C1625      C2200   1.407       .  A
C1625      C2202   1.391       .  A
C1625      H1632   1.082       .  S
C1626      C2201   1.391       .  A
C1626      S2204   1.807       .  S
S1628      C2202   1.807       .  S
S1628      H1629   1.405       .  S
C1633      C1634   1.401       .  A
C1633      C1638   1.412       .  A
C1634      C1635   1.391       .  A
C1634      H1643   1.081       .  S
C1635      C1636   1.414       .  A
C1635      S2215   1.805       .  S
C1636      C1637   1.408       .  A
C1637      C1638   1.404       .  A
C1637      H1644   1.084       .  S
C1638      S1640   1.804       .  S
S1639      C2211   1.805   1_545  S
S1639      H2218   1.407       .  S
S1640      H1641   1.407       .  S
H1642      S2215   1.407       .  S
C1645      C1646   1.405       .  A
C1645      C1650   1.414       .  A
C1646      C1647   1.405       .  A
C1646      H1655   1.082       .  S
C1647      C1648   1.415       .  A
C1647      S1651   1.804       .  S
C1648      C1649   1.399       .  A
C1649      C1650   1.391       .  A
C1649      H1656   1.085       .  S
C1650      S2228   1.800       .  S
S1651      H1654   1.406       .  S
S1652      C2226   1.800   1_545  S
S1652      H1653   1.407       .  S
C1657      C2234   1.407   1_545  A
C1657      C1662   1.414       .  A
C1658      C2233   1.407       .  A
C1658      C1659   1.401       .  A
C1658      H1667   1.084       .  S
C1659      C1660   1.413       .  A
C1659      S1663   1.804       .  S
C1660      C1661   1.405       .  A
C1661      C2238   1.400       .  A
C1661      H1668   1.083       .  S
C1662      C2237   1.400       .  A
C1662      S1664   1.804       .  S
S1663      H1666   1.406       .  S
S1664      H1665   1.406       .  S
C1669      C1670   1.396       .  A
C1669      C1674   1.410       .  A
C1670      C1671   1.394       .  A
C1670      H1679   1.083       .  S
C1671      C1672   1.426       .  A
C1671      S1675   1.816       .  S
C1672      C1673   1.409       .  A
C1673      C1674   1.405       .  A
C1673      H1680   1.081       .  S
C1674      S1676   1.804       .  S
S1675      H1678   1.406       .  S
S1676      H1677   1.403       .  S
C1681      C1682   1.400       .  A
C1681      C1686   1.414       .  A
C1682      C1683   1.398       .  A
C1682      H1691   1.083       .  S
C1683      C1684   1.416       .  A
C1683      S1687   1.805       .  S
C1684      C1685   1.401       .  A
C1685      C1686   1.399       .  A
C1685      H1692   1.084       .  S
C1686      S1688   1.806       .  S
S1687      H1690   1.406       .  S
S1688      H1689   1.402       .  S
C1693      C1694   1.407       .  A
C1694      C1695   1.398       .  A
C1694      H1703   1.084       .  S
C1695      C1696   1.410       .  A
C1696      C1697   1.403       .  A
C1697      H1704   1.085       .  S
C1698      S1700   1.803   1_554  S
S1699      H1702   1.403       .  S
S1700      H1701   1.406       .  S
C1705      C1706   1.408       .  A
C1705      C1710   1.419       .  A
C1707      S1711   1.804   1_554  S
C1708      C1709   1.400       .  A
C1709      C1710   1.392       .  A
C1709      H1716   1.085       .  S
C1710      S1712   1.804       .  S
S1711      H1714   1.405       .  S
C1717      C1718   1.406       .  A
C1717      C1722   1.417       .  A
C1718      C1719   1.403       .  A
C1718      H1727   1.084       .  S
C1719      C1720   1.417       .  A
C1719      S1723   1.804       .  S
C1720      C1721   1.404       .  A
C1721      C1722   1.400       .  A
C1721      H1728   1.084       .  S
C1722      S1724   1.804       .  S
S1723      H1726   1.407       .  S
S1724      H1725   1.407       .  S
C1729      C2018   1.404       .  A
C1729      C1734   1.398       .  A
C1729      C2284   1.476       .  S
C1730      C2017   1.404       .  A
C1730      C1731   1.411       .  A
C1730      H1735   1.083       .  S
C1731      C1732   1.408       .  A
C1731      C2005   1.492       .  S
C1732      C2021   1.404       .  A
C1732      H1736   1.084       .  S
C1733      C2020   1.404       .  A
C1733      C1734   1.396       .  A
C1733      C2269   1.480       .  S
C1734      H1737   1.085       .  S
C1738      C1739   1.406       .  A
C1738      C1743   1.399       .  A
C1738      C1957   1.474       .  S
C1739      C1740   1.410       .  A
C1739      H1744   1.083       .  S
C1740      C1741   1.407       .  A
C1740      C2008   1.491       .  S
C1741      C1742   1.403       .  A
C1741      H1745   1.084       .  S
C1742      C1743   1.396       .  A
C1742      C1972   1.478       .  S
C1743      H1746   1.085       .  S
C1747      C1748   1.403       .  A
C1747      C1752   1.407       .  A
C1747      C1924   1.482       .  S
C1748      C1749   1.399       .  A
C1748      H1753   1.084       .  S
C1749      C1750   1.404       .  A
C1749      C1936   1.478       .  S
C1750      C1751   1.402       .  A
C1750      H1754   1.084       .  S
C1751      C1752   1.405       .  A
C1751      C1948   1.485       .  S
C1752      H1755   1.084       .  S
C1756      C1757   1.403       .  A
C1756      C1761   1.401       .  A
C1756      C1909   1.472       .  S
C1757      C1758   1.404       .  A
C1757      H1762   1.084       .  S
C1758      C1759   1.404       .  A
C1758      C1945   1.487       .  S
C1759      C1760   1.407       .  A
C1759      H1763   1.084       .  S
C1760      C1761   1.400       .  A
C1760      C1900   1.483       .  S
C1761      H1764   1.084       .  S
C1765      C1766   1.404       .  A
C1765      C1770   1.400       .  A
C1765      C1864   1.475       .  S
C1766      C1767   1.407       .  A
C1766      H1771   1.083       .  S
C1767      C1768   1.405       .  A
C1768      C1769   1.407       .  A
C1768      H1772   1.083       .  S
C1769      C1770   1.402       .  A
C1769      C1873   1.487       .  S
C1770      H1773   1.084       .  S
C1774      C1775   1.412       .  A
C1774      C1779   1.409       .  A
C1774      C1849   1.499       .  S
C1775      C1776   1.408       .  A
C1775      H1780   1.082       .  S
C1776      C1777   1.401       .  A
C1776      C1885   1.486       .  S
C1777      C1778   1.404       .  A
C1777      H1781   1.084       .  S
C1778      C1779   1.400       .  A
C1778      C1837   1.488       .  S
C1779      H1782   1.083       .  S
O1783      C1794   1.295       .  A
O1784      C1795   1.297       .  A
O1784     Zr1818   2.466   1_565  S
O1785      C1796   1.292       .  A
O1786      C1797   1.294       .  A
O1786     Zr1791   2.456       .  S
O1787      C1797   1.288       .  A
O1787     Zr1821   2.420       .  S
O1788      C1796   1.291       .  A
O1789      C1795   1.287       .  A
O1789     Zr1791   2.409       .  S
O1790      C1794   1.289       .  A
Zr1791     O1792   2.338       .  S
Zr1791     O1801   2.332       .  S
Zr1791     O1799   2.344       .  S
O1792     Zr1818   2.337   1_565  S
O1792     Zr1821   2.335       .  S
C1794      C1993   1.490       .  S
C1795      C1840   1.471       .  S
C1796      C1921   1.474       .  S
C1797      C1969   1.467       .  S
H1798      O1799   0.965       .  S
O1799     Zr1818   2.342   1_565  S
H1800      O1801   0.966       .  S
O1801     Zr1819   2.340       .  S
O1801     Zr1821   2.342       .  S
O1802      C1825   1.298       .  A
O1803     Zr2107   2.457   1_545  S
O1804     Zr1820   2.465       .  S
O1805      C1828   1.295       .  A
O1805     Zr1821   2.457       .  S
O1806      C2117   1.294       .  A
O1806     Zr1821   2.454   1_556  S
O1807     Zr1820   2.464       .  S
O1808     Zr1822   2.454       .  S
O1809      C1832   1.293       .  A
O1809     Zr1822   2.449   1_556  S
O1810      C1831   1.287       .  A
O1810     Zr1820   2.416       .  S
O1811     Zr1821   2.416       .  S
O1812      C1827   1.289       .  A
O1813      C1830   1.289   1_566  A
O1814      C1829   1.290       .  A
O1814     Zr2107   2.421       .  S
O1815      C1828   1.290       .  A
O1815     Zr1818   2.420   1_565  S
O1816      C1825   1.283       .  A
O1816     Zr1822   2.402       .  S
O1817      C1826   1.287       .  A
O1817     Zr2110   2.414       .  S
Zr1818     O1836   2.341       .  S
Zr1819     O2091   2.457   1_564  S
Zr1819     O2102   2.421   1_554  S
Zr1819     O1823   2.340       .  S
Zr1821     O1823   2.346       .  S
Zr1821     O1836   2.339   1_565  S
Zr1822     O2105   2.414   1_554  S
Zr1822     O1824   2.338       .  S
Zr1822     O1834   2.326       .  S
C1825      C1960   1.495       .  S
C1826      C1876   1.467       .  S
C1827      C1861   1.501       .  S
C1828      C1933   1.480       .  S
C1829      C1852   1.472       .  S
C1829      O2094   1.294       .  A
C1831      C1984   1.463       .  S
C1832      C2200   1.487       .  S
C1837      C1838   1.410       .  A
C1837      C1842   1.414       .  A
C1838      C1839   1.404       .  A
C1838      H1847   1.083       .  S
C1839      C1840   1.411       .  A
C1839      S1843   1.805       .  S
C1840      C1841   1.402       .  A
C1841      C1842   1.394       .  A
C1841      H1848   1.081       .  S
C1842      S1844   1.805       .  S
S1843      H1846   1.405       .  S
S1844      H1845   1.407       .  S
C1849      C1850   1.413       .  A
C1849      C1854   1.419       .  A
C1850      C1851   1.402       .  A
C1850      H1859   1.084       .  S
C1851      C1852   1.408       .  A
C1851      S1855   1.801       .  S
C1852      C1853   1.400       .  A
C1853      C1854   1.398       .  A
C1853      H1860   1.084       .  S
C1854      S1856   1.804       .  S
S1855      H1858   1.406       .  S
S1856      H1857   1.407       .  S
C1861      C1862   1.412       .  A
C1862      C1863   1.390       .  A
C1862      H1871   1.083       .  S
C1863      S1867   1.806       .  S
C1864      C1865   1.403       .  A
C1865      C1866   1.408       .  A
C1865      H1872   1.084       .  S
C1866      S1868   1.799       .  S
S1867      H1870   1.403       .  S
S1868      H1869   1.402       .  S
C1873      C1878   1.414       .  A
C1874      C1875   1.400       .  A
C1874      H1883   1.084       .  S
C1875      C1876   1.408       .  A
C1875      S1879   1.806       .  S
C1877      C1878   1.397       .  A
C1877      H1884   1.085       .  S
C1878      S1880   1.805       .  S
S1880      H1881   1.406       .  S
C1885      C1886   1.404       .  A
C1885      C1890   1.414       .  A
C1886      C1887   1.402       .  A
C1886      H1895   1.084       .  S
C1887      C1888   1.416       .  A
C1887      S1891   1.801       .  S
C1889      H1896   1.084       .  S
C1890      S1892   1.801   1_655  S
S1891      H1894   1.406       .  S
S1892      H1893   1.406       .  S
C1897      C2186   1.408       .  A
C1898      C2185   1.408       .  A
C1898      C2187   1.408       .  A
C1898      H1907   1.084   1_556  S
C1899      C2186   1.408       .  A
C1899      C1900   1.416       .  A
C1899      S2191   1.803       .  S
C1900      C1901   1.399       .  A
C1902      S1904   1.798       .  S
S1903      C2187   1.803       .  S
S1903      H2194   1.406       .  S
S1904      H1905   1.408       .  S
H1906      S2191   1.406       .  S
C1909      C1910   1.403       .  A
C1909      C1914   1.408       .  A
C1910      C1911   1.404       .  A
C1910      H1919   1.084       .  S
C1911      C1912   1.419       .  A
C1911      S1915   1.802       .  S
C1912      C2120   1.487       .  S
C1913      H1920   1.082       .  S
S1915      H2206   1.408       .  S
S1916      H1917   1.405       .  S
H1918      S2203   1.408   1_554  S
C1921      C1922   1.401       .  A
C1921      C1926   1.412       .  A
C1922      C1923   1.391       .  A
C1922      H1931   1.081       .  S
C1923      C1924   1.414       .  A
C1924      C1925   1.408       .  A
C1925      C1926   1.404       .  A
C1925      H1932   1.084       .  S
C1926      S1928   1.804       .  S
S1928      H1929   1.407       .  S
C1933      C1934   1.405       .  A
C1933      C1938   1.414       .  A
C1934      C1935   1.405       .  A
C1934      H1943   1.082       .  S
C1935      C1936   1.415       .  A
C1935      S1939   1.804       .  S
C1936      C1937   1.399       .  A
C1937      C1938   1.391       .  A
C1937      H1944   1.085   1_565  S
S1939      H1942   1.406       .  S
S1940      H1941   1.407       .  S
C1945      C1950   1.414       .  A
C1946      C1947   1.401       .  A
C1946      H1955   1.084       .  S
C1947      C1948   1.413       .  A
C1947      S1951   1.804       .  S
C1948      C1949   1.405   1_565  A
C1949      H1956   1.083       .  S
C1950      S1952   1.804       .  S
S1951      H1954   1.406       .  S
S1952      H1953   1.406       .  S
C1957      C1958   1.396       .  A
C1957      C1962   1.410       .  A
C1958      C1959   1.394       .  A
C1958      H1967   1.083       .  S
C1959      C1960   1.426       .  A
C1959      S1963   1.816       .  S
C1960      C1961   1.409       .  A
C1961      C1962   1.405       .  A
C1961      H1968   1.081       .  S
C1962      S1964   1.804       .  S
S1963      H1966   1.406       .  S
S1964      H1965   1.403       .  S
C1969      C1970   1.400       .  A
C1969      C1974   1.414       .  A
C1970      C1971   1.398       .  A
C1970      H1979   1.083       .  S
C1971      C1972   1.416       .  A
C1971      S1975   1.805       .  S
C1972      C1973   1.401       .  A
C1973      C1974   1.399       .  A
C1973      H1980   1.084       .  S
C1974      S1976   1.806       .  S
S1975      H1978   1.406       .  S
S1976      H1977   1.402       .  S
C1981      C1982   1.407       .  A
C1981      C2274   1.411       .  A
C1981      C2021   1.480       .  S
C1982      C1983   1.398       .  A
C1982      H1991   1.084       .  S
C1983      C1984   1.410       .  A
C1984      C1985   1.403       .  A
C1985      C2274   1.399       .  A
C1985      H1992   1.085   1_554  S
C1986      C2269   1.411       .  A
C1986      C2273   1.399       .  A
C1986      S1988   1.803       .  S
S1987      H1990   1.403       .  S
S1988      H1989   1.406       .  S
C1993      C1994   1.408       .  A
C1993      C1998   1.419       .  A
C1994      C2283   1.404       .  A
C1994      H2291   1.077   1_554  S
C1995      C2282   1.404       .  A
C1995      C2284   1.410       .  A
C1995      S1999   1.804       .  S
C1996      C2283   1.410       .  A
C1996      C1997   1.400       .  A
C1996      C2017   1.476       .  S
C1997      C1998   1.392       .  A
C1997      H2004   1.085       .  S
C1998      S2000   1.804       .  S
S1999      H2002   1.405       .  S
H2003      C2282   1.077       .  S
C2005      C2006   1.406       .  A
C2005      C2010   1.417       .  A
C2006      C2007   1.403       .  A
C2006      H2015   1.084       .  S
C2007      C2008   1.417       .  A
C2007      S2011   1.804       .  S
C2008      C2009   1.404       .  A
C2009      C2010   1.400       .  A
C2009      H2016   1.084       .  S
C2010      S2012   1.804       .  S
S2011      H2014   1.407       .  S
S2012      H2013   1.407       .  S
C2017      C2022   1.398       .  A
C2018      C2019   1.411       .  A
C2018      H2023   1.083       .  S
C2019      C2020   1.408       .  A
C2019      C2293   1.492       .  S
C2020      H2024   1.084       .  S
C2021      C2022   1.396       .  A
C2022      H2025   1.085       .  S
C2026      C2027   1.406       .  A
C2026      C2031   1.399       .  A
C2026      C2245   1.474       .  S
C2027      C2028   1.410       .  A
C2027      H2032   1.083       .  S
C2028      C2029   1.407       .  A
C2028      C2296   1.491       .  S
C2029      C2030   1.403       .  A
C2029      H2033   1.084       .  S
C2030      C2031   1.396       .  A
C2030      C2260   1.478       .  S
C2031      H2034   1.085       .  S
C2035      C2036   1.403       .  A
C2035      C2040   1.407       .  A
C2035      C2212   1.482       .  S
C2036      C2037   1.399       .  A
C2036      H2041   1.084       .  S
C2037      C2038   1.404       .  A
C2037      C2224   1.478       .  S
C2038      C2039   1.402       .  A
C2038      H2042   1.084       .  S
C2039      C2040   1.405       .  A
C2039      C2236   1.485       .  S
C2040      H2043   1.084       .  S
C2044      C2045   1.403       .  A
C2044      C2049   1.401       .  A
C2044      C2197   1.472       .  S
C2045      C2046   1.404       .  A
C2045      H2050   1.084       .  S
C2046      C2047   1.404       .  A
C2046      C2233   1.487       .  S
C2047      C2048   1.407       .  A
C2047      H2051   1.084       .  S
C2048      C2049   1.400       .  A
C2048      C2188   1.483       .  S
C2049      H2052   1.084       .  S
C2053      C2054   1.404       .  A
C2053      C2058   1.400       .  A
C2053      C2152   1.475       .  S
C2054      C2055   1.407       .  A
C2054      H2059   1.083       .  S
C2055      C2056   1.405       .  A
C2056      C2057   1.407       .  A
C2056      H2060   1.083       .  S
C2057      C2058   1.402       .  A
C2057      C2161   1.487       .  S
C2058      H2061   1.084       .  S
C2062      C2063   1.412       .  A
C2062      C2067   1.409       .  A
C2062      C2137   1.499       .  S
C2063      C2064   1.408       .  A
C2063      H2068   1.082       .  S
C2064      C2065   1.401       .  A
C2064      C2173   1.486       .  S
C2065      C2066   1.404       .  A
C2065      H2069   1.084       .  S
C2066      C2067   1.400       .  A
C2066      C2125   1.488       .  S
C2067      H2070   1.083       .  S
O2071      C2082   1.295       .  A
O2072      C2083   1.297       .  A
O2072     Zr2106   2.466   1_565  S
O2073      C2084   1.292       .  A
O2074      C2085   1.294       .  A
O2074     Zr2079   2.456       .  S
O2075      C2085   1.288       .  A
O2075     Zr2109   2.420       .  S
O2076      C2084   1.291       .  A
O2077      C2083   1.287       .  A
O2077     Zr2079   2.409       .  S
O2078      C2082   1.289       .  A
Zr2079     O2080   2.338       .  S
Zr2079     O2089   2.332       .  S
Zr2079     O2087   2.344       .  S
O2080     Zr2106   2.337   1_565  S
O2080     Zr2109   2.335       .  S
C2082      C2281   1.490       .  S
C2083      C2128   1.471       .  S
C2084      C2209   1.474       .  S
C2085      C2257   1.467       .  S
H2086      O2087   0.965       .  S
O2087     Zr2106   2.342   1_565  S
H2088      O2089   0.966       .  S
O2089     Zr2107   2.340       .  S
O2089     Zr2109   2.342       .  S
O2090      C2113   1.298       .  A
O2092     Zr2108   2.465       .  S
O2093      C2116   1.295       .  A
O2093     Zr2109   2.457       .  S
O2094     Zr2109   2.454       .  S
O2095     Zr2108   2.464       .  S
O2096     Zr2110   2.454       .  S
O2097      C2120   1.293       .  A
O2097     Zr2110   2.449       .  S
O2098      C2119   1.287       .  A
O2098     Zr2108   2.416       .  S
O2099     Zr2109   2.416       .  S
O2100      C2115   1.289       .  A
O2101      C2118   1.289   1_565  A
O2102      C2117   1.290       .  A
O2103      C2116   1.290       .  A
O2103     Zr2106   2.420   1_565  S
O2104      C2113   1.283       .  A
O2104     Zr2110   2.402       .  S
O2105      C2114   1.287       .  A
Zr2106     O2124   2.341       .  S
Zr2107     O2111   2.340       .  S
Zr2109     O2111   2.346       .  S
Zr2109     O2124   2.339   1_565  S
Zr2110     O2112   2.338       .  S
Zr2110     O2122   2.326       .  S
C2113      C2248   1.495       .  S
C2114      C2164   1.467       .  S
C2115      C2149   1.501       .  S
C2116      C2221   1.480       .  S
C2117      C2140   1.472       .  S
C2119      C2272   1.463       .  S
C2125      C2126   1.410       .  A
C2125      C2130   1.414       .  A
C2126      C2127   1.404       .  A
C2126      H2135   1.083       .  S
C2127      C2128   1.411       .  A
C2127      S2131   1.805       .  S
C2128      C2129   1.402       .  A
C2129      C2130   1.394       .  A
C2129      H2136   1.081       .  S
C2130      S2132   1.805       .  S
S2131      H2134   1.405       .  S
S2132      H2133   1.407       .  S
C2137      C2138   1.413       .  A
C2137      C2142   1.419       .  A
C2138      C2139   1.402       .  A
C2138      H2147   1.084       .  S
C2139      C2140   1.408       .  A
C2139      S2143   1.801       .  S
C2140      C2141   1.400       .  A
C2141      C2142   1.398       .  A
C2141      H2148   1.084       .  S
C2142      S2144   1.804       .  S
S2143      H2146   1.406       .  S
S2144      H2145   1.407       .  S
C2149      C2150   1.412       .  A
C2150      C2151   1.390       .  A
C2150      H2159   1.083       .  S
C2151      S2155   1.806       .  S
C2152      C2153   1.403       .  A
C2153      C2154   1.408       .  A
C2153      H2160   1.084       .  S
C2154      S2156   1.799       .  S
S2155      H2158   1.403       .  S
S2156      H2157   1.402       .  S
C2161      C2166   1.414       .  A
C2162      C2163   1.400       .  A
C2162      H2171   1.084       .  S
C2163      C2164   1.408       .  A
C2163      S2167   1.806       .  S
C2165      C2166   1.397       .  A
C2165      H2172   1.085       .  S
C2166      S2168   1.805       .  S
S2168      H2169   1.406       .  S
C2173      C2174   1.404       .  A
C2173      C2178   1.414       .  A
C2174      C2175   1.402       .  A
C2174      H2183   1.084       .  S
C2175      C2176   1.416       .  A
C2175      S2179   1.801       .  S
C2177      H2184   1.084       .  S
C2178      S2180   1.801   1_655  S
S2179      H2182   1.406       .  S
S2180      H2181   1.406       .  S
C2186      H2195   1.084       .  S
C2187      C2188   1.416       .  A
C2188      C2189   1.399       .  A
C2190      S2192   1.798       .  S
S2192      H2193   1.408   1_556  S
C2197      C2198   1.403       .  A
C2197      C2202   1.408       .  A
C2198      C2199   1.404       .  A
C2198      H2207   1.084       .  S
C2199      C2200   1.419       .  A
C2199      S2203   1.802       .  S
C2201      H2208   1.082       .  S
S2204      H2205   1.405       .  S
C2209      C2210   1.401       .  A
C2209      C2214   1.412       .  A
C2210      C2211   1.391       .  A
C2210      H2219   1.081       .  S
C2211      C2212   1.414       .  A
C2212      C2213   1.408       .  A
C2213      C2214   1.404       .  A
C2213      H2220   1.084       .  S
C2214      S2216   1.804       .  S
S2216      H2217   1.407       .  S
C2221      C2222   1.405       .  A
C2221      C2226   1.414       .  A
C2222      C2223   1.405       .  A
C2222      H2231   1.082       .  S
C2223      C2224   1.415       .  A
C2223      S2227   1.804       .  S
C2224      C2225   1.399       .  A
C2225      C2226   1.391       .  A
C2225      H2232   1.085   1_565  S
S2227      H2230   1.406       .  S
S2228      H2229   1.407       .  S
C2233      C2238   1.414       .  A
C2234      C2235   1.401       .  A
C2234      H2243   1.084       .  S
C2235      C2236   1.413       .  A
C2235      S2239   1.804       .  S
C2236      C2237   1.405   1_565  A
C2237      H2244   1.083       .  S
C2238      S2240   1.804       .  S
S2239      H2242   1.406       .  S
S2240      H2241   1.406       .  S
C2245      C2246   1.396       .  A
C2245      C2250   1.410       .  A
C2246      C2247   1.394       .  A
C2246      H2255   1.083       .  S
C2247      C2248   1.426       .  A
C2247      S2251   1.816       .  S
C2248      C2249   1.409       .  A
C2249      C2250   1.405       .  A
C2249      H2256   1.081       .  S
C2250      S2252   1.804       .  S
S2251      H2254   1.406       .  S
S2252      H2253   1.403       .  S
C2257      C2258   1.400       .  A
C2257      C2262   1.414       .  A
C2258      C2259   1.398       .  A
C2258      H2267   1.083       .  S
C2259      C2260   1.416       .  A
C2259      S2263   1.805       .  S
C2260      C2261   1.401       .  A
C2261      C2262   1.399       .  A
C2261      H2268   1.084       .  S
C2262      S2264   1.806       .  S
S2263      H2266   1.406       .  S
S2264      H2265   1.402       .  S
C2269      C2270   1.407       .  A
C2270      C2271   1.398       .  A
C2270      H2279   1.084       .  S
C2271      C2272   1.410       .  A
C2272      C2273   1.403       .  A
C2273      H2280   1.085       .  S
C2274      S2276   1.803   1_554  S
S2275      H2278   1.403       .  S
S2276      H2277   1.406       .  S
C2281      C2282   1.408       .  A
C2281      C2286   1.419       .  A
C2283      S2287   1.804   1_554  S
C2284      C2285   1.400       .  A
C2285      C2286   1.392       .  A
C2285      H2292   1.085       .  S
C2286      S2288   1.804       .  S
S2287      H2290   1.405       .  S
C2293      C2294   1.406       .  A
C2293      C2298   1.417       .  A
C2294      C2295   1.403       .  A
C2294      H2303   1.084       .  S
C2295      C2296   1.417       .  A
C2295      S2299   1.804       .  S
C2296      C2297   1.404       .  A
C2297      C2298   1.400       .  A
C2297      H2304   1.084       .  S
C2298      S2300   1.804       .  S
S2299      H2302   1.407       .  S
S2300      H2301   1.407       .  S
